data_COF-300-H2O_cryo
_audit_creation_date               2019-05-05
_audit_creation_method
;
Olex2 1.2
(compiled 2018.05.29 svn.r3508 for OlexSys, GUI svn.r5506)
;
_shelx_SHELXL_version_number       '2017/1'
_audit_contact_author_address      ?
_audit_contact_author_email        ?
_audit_contact_author_name         ''
_audit_contact_author_phone        ?
_publ_contact_author_id_orcid      ?
_publ_section_references
;
Dolomanov, O.V., Bourhis, L.J., Gildea, R.J, Howard, J.A.K. & Puschmann, H.
 (2009), J. Appl. Cryst. 42, 339-341.

Sheldrick, G.M. (2008). Acta Cryst. A64, 112-122.
;
_chemical_name_common              ?
_chemical_name_systematic          COF-300-H2O
_chemical_formula_moiety           '0.25(C164 H112 N16), 4(H2 O)'
_chemical_formula_sum              'C41 H36 N4 O4'
_chemical_formula_weight           648.74
_chemical_melting_point            ?
loop_
  _atom_type_symbol
  _atom_type_description
  _atom_type_scat_dispersion_real
  _atom_type_scat_dispersion_imag
  _atom_type_scat_source
 'C' 'C' 0.0033 0.0016 'International Tables Vol C Tables 4.2.6.8 and 6.1.1.4'
 'N' 'N' 0.0061 0.0033 'International Tables Vol C Tables 4.2.6.8 and 6.1.1.4'
 'O' 'O' 0.0106 0.0060 'International Tables Vol C Tables 4.2.6.8 and 6.1.1.4'
 'H' 'H' 0.0000 0.0000 'International Tables Vol C Tables 4.2.6.8 and 6.1.1.4'

_shelx_space_group_comment
;
The symmetry employed for this shelxl refinement is uniquely defined
by the following loop, which should always be used as a source of
symmetry information in preference to the above space-group names.
They are only intended as comments.
;
_space_group_crystal_system        'tetragonal'
_space_group_IT_number             88
_space_group_name_H-M_alt          'I 41/a'
_space_group_name_Hall             '-I 4ad'
loop_
  _space_group_symop_operation_xyz
 'x, y, z'
 '-y+3/4, x+1/4, z+1/4'
 '-x+1/2, -y, z+1/2'
 'y+3/4, -x+3/4, z+3/4'
 'x+1/2, y+1/2, z+1/2'
 '-y+5/4, x+3/4, z+3/4'
 '-x+1, -y+1/2, z+1'
 'y+5/4, -x+5/4, z+5/4'
 '-x, -y, -z'
 'y-3/4, -x-1/4, -z-1/4'
 'x-1/2, y, -z-1/2'
 '-y-3/4, x-3/4, -z-3/4'
 '-x+1/2, -y+1/2, -z+1/2'
 'y-1/4, -x+1/4, -z+1/4'
 'x, y+1/2, -z'
 '-y-1/4, x-1/4, -z-1/4'

_cell_length_a                     19.900
_cell_length_b                     19.900
_cell_length_c                     9.300
_cell_angle_alpha                  90
_cell_angle_beta                   90
_cell_angle_gamma                  90
_cell_volume                       3682.9
_cell_formula_units_Z              4
_cell_measurement_reflns_used      ?
_cell_measurement_temperature      77
_cell_measurement_theta_max        ?
_cell_measurement_theta_min        ?
_shelx_estimated_absorpt_T_max     1.000
_shelx_estimated_absorpt_T_min     1.000
_exptl_absorpt_coefficient_mu      0.076
_exptl_absorpt_correction_T_max    ?
_exptl_absorpt_correction_T_min    ?
_exptl_absorpt_correction_type     none
_exptl_absorpt_process_details     ?
_exptl_absorpt_special_details     ?
_exptl_crystal_colour              'dull light yellow'
_exptl_crystal_colour_lustre       dull
_exptl_crystal_colour_modifier     light
_exptl_crystal_colour_primary      yellow
_exptl_crystal_density_diffrn      1.170
_exptl_crystal_density_meas        ?
_exptl_crystal_density_method      ?
_exptl_crystal_description         prism
_exptl_crystal_F_000               1368
_exptl_crystal_preparation        
 'dispersed in water and sonicated, vitrificated in liquid ethane'
_exptl_crystal_recrystallization_method 
 'Y.-B. Zhang, et al.  J. Am. Chem. Soc. 2019, 141, 3298'
_exptl_crystal_size_max            0.001
_exptl_crystal_size_mid            0.0004
_exptl_crystal_size_min            0.0004
_exptl_transmission_factor_max     ?
_exptl_transmission_factor_min     ?
_diffrn_reflns_av_R_equivalents    0.2979
_diffrn_reflns_av_unetI/netI       0.1769
_diffrn_reflns_Laue_measured_fraction_full  0.784
_diffrn_reflns_Laue_measured_fraction_max  0.784
_diffrn_reflns_limit_h_max         21
_diffrn_reflns_limit_h_min         -21
_diffrn_reflns_limit_k_max         17
_diffrn_reflns_limit_k_min         -17
_diffrn_reflns_limit_l_max         10
_diffrn_reflns_limit_l_min         -10
_diffrn_reflns_number              3282
_diffrn_reflns_point_group_measured_fraction_full  0.784
_diffrn_reflns_point_group_measured_fraction_max  0.784
_diffrn_reflns_theta_full          0.796
_diffrn_reflns_theta_max           0.796
_diffrn_reflns_theta_min           0.072
_diffrn_ambient_temperature        77
_diffrn_detector_area_resol_mean   ?
_diffrn_measured_fraction_theta_full  0.784
_diffrn_measured_fraction_theta_max  0.784
_diffrn_measurement_device_type    'JEM-2100 Plus with TVIPS CMOS'
_diffrn_measurement_method         ?
_diffrn_radiation_type             ?
_diffrn_radiation_wavelength       0.0251
_diffrn_source                     ?
_reflns_Friedel_coverage           0.000
_reflns_Friedel_fraction_full      .
_reflns_Friedel_fraction_max       .
_reflns_number_gt                  858
_reflns_number_total               1027
_reflns_special_details
;
 Reflections were merged by SHELXL according to the crystal
 class for the calculation of statistics and refinement.
 
 _reflns_Friedel_fraction is defined as the number of unique
 Friedel pairs measured divided by the number that would be
 possible theoretically, ignoring centric projections and
 systematic absences.
;
_reflns_threshold_expression       'I > 2\s(I)'
_computing_cell_refinement        £¿
_computing_data_collection          'EDT Collect'
_computing_data_reduction           'EDT Process'
_computing_molecular_graphics      'Olex2 (Dolomanov et al., 2009)'
_computing_publication_material    'Olex2 (Dolomanov et al., 2009)'
_computing_structure_refinement    'XL (Sheldrick, 2008)'
_computing_structure_solution      'ShelXS (Sheldrick, 2008)'
_refine_diff_density_max           0.522
_refine_diff_density_min           -0.501
_refine_diff_density_rms           0.145
_refine_ls_extinction_coef         .
_refine_ls_extinction_method       none
_refine_ls_goodness_of_fit_ref     1.052
_refine_ls_hydrogen_treatment      constr
_refine_ls_matrix_type             full
_refine_ls_number_parameters       114
_refine_ls_number_reflns           1027
_refine_ls_number_restraints       219
_refine_ls_R_factor_all            0.3074
_refine_ls_R_factor_gt             0.2911
_refine_ls_restrained_S_all        0.953
_refine_ls_shift/su_max            0.000
_refine_ls_shift/su_mean           0.000
_refine_ls_structure_factor_coef   Fsqd
_refine_ls_weighting_details      
 'w=1/[\s^2^(Fo^2^)+(0.2000P)^2^+150.0000P] where P=(Fo^2^+2Fc^2^)/3'
_refine_ls_weighting_scheme        calc
_refine_ls_wR_factor_gt            0.6091
_refine_ls_wR_factor_ref           0.6187
_refine_special_details            ?
_olex2_refinement_description
;
1. Fixed Uiso
 At 1.2 times of:
  All C(H) groups
 At 1.5 times of:
  All O(H,H) groups
2. Restrained distances
 C2-C4 \\sim C2-C6 \\sim C6-C4 \\sim C3-C7 \\sim C7-C5 \\sim C5-C3 \\sim
C9-C11_$1 \\sim C9-C10_$1 ~
 C10_$1-C11_$1 \\sim C10-C11 \\sim C11-C9_$1 \\sim C9_$1-C10
 with sigma of 0.02
 C3-C2 \\sim C4-C3 \\sim C5-C4 \\sim C6-C5 \\sim C7-C6 \\sim C7-C2 \\sim C9-C11
\\sim C9-C10 \\sim C11_$1-C10
 \\sim C9_$1-C11_$1 \\sim C9_$1-C10_$1 \\sim C11-C10_$1
 with sigma of 0.02
3. Restrained planarity
 C2, C7, C6, C5, C4, C3
 with sigma of 0.1
 C9, C10, C11_$1, C9_$1, C10_$1, C11
 with sigma of 0.1
4. Rigid body (RIGU) restrains
 C11, C9, C8, C10, N1, C5, C4, C3, C2, C7, C6, C1
 with sigma for 1-2 distances of 0.004 and sigma for 1-3 distances of 0.004
5.a Free rotating group:
 O1(H1A,H1B)
5.b Aromatic/amide H refined with riding coordinates:
 C4(H4), C3(H3), C7(H7), C6(H6), C8(H8), C10(H10), C11(H11)
;
_atom_sites_solution_hydrogens     mixed
_atom_sites_solution_primary       direct
_atom_sites_solution_secondary     ?
loop_
  _atom_site_label
  _atom_site_type_symbol
  _atom_site_fract_x
  _atom_site_fract_y
  _atom_site_fract_z
  _atom_site_U_iso_or_equiv
  _atom_site_adp_type
  _atom_site_occupancy
  _atom_site_site_symmetry_order
  _atom_site_calc_flag
  _atom_site_refinement_flags_posn
  _atom_site_refinement_flags_adp
  _atom_site_refinement_flags_occupancy
  _atom_site_disorder_assembly
  _atom_site_disorder_group
 C1 C 0.000000 0.250000 0.125000 0.082(8) Uani 1 4 d S TU P . .
 C5 C 0.0232(8) 0.3982(10) 0.4762(17) 0.089(6) Uani 1 1 d D U . . .
 C4 C -0.0410(8) 0.3677(10) 0.4473(17) 0.090(6) Uani 1 1 d D U . . .
 H4 H -0.077025 0.374672 0.509229 0.108 Uiso 1 1 calc R . . . .
 C3 C -0.0488(8) 0.3262(9) 0.3213(18) 0.079(5) Uani 1 1 d D U . . .
 H3 H -0.090881 0.309086 0.297434 0.095 Uiso 1 1 calc R . . . .
 C2 C 0.0082(7) 0.3112(9) 0.2329(17) 0.081(5) Uani 1 1 d D U . . .
 C7 C 0.0722(7) 0.3413(8) 0.2626(16) 0.081(5) Uani 1 1 d D U . . .
 H7 H 0.108796 0.332617 0.203168 0.097 Uiso 1 1 calc R . . . .
 C6 C 0.0796(8) 0.3849(10) 0.3846(18) 0.101(7) Uani 1 1 d D U . . .
 H6 H 0.121016 0.404538 0.404285 0.121 Uiso 1 1 calc R . . . .
 C8 C -0.0113(15) 0.4550(10) 0.697(2) 0.097(7) Uani 1 1 d . U . . .
 H8 H -0.053309 0.455919 0.652811 0.117 Uiso 1 1 calc R . . . .
 N1 N 0.0432(11) 0.4328(12) 0.623(2) 0.110(7) Uani 1 1 d . U . . .
 C9 C -0.0033(8) 0.4785(10) 0.8528(13) 0.101(7) Uani 1 1 d D U . . .
 C10 C -0.0636(6) 0.4973(10) 0.9274(15) 0.092(6) Uani 1 1 d D U . . .
 H10 H -0.104752 0.495935 0.880085 0.111 Uiso 1 1 calc R . . . .
 C11 C 0.0605(6) 0.4818(8) 0.9246(15) 0.082(5) Uani 1 1 d D U . . .
 H11 H 0.099668 0.470392 0.875729 0.099 Uiso 1 1 calc R . . . .
 O1 O 0.193(2) 0.468(2) 0.625(3) 0.213(13) Uani 1 1 d . . . . .
 H1A H 0.234990 0.469863 0.608495 0.320 Uiso 1 1 d G . . . .
 H1B H 0.174906 0.469779 0.542522 0.320 Uiso 1 1 d G . . . .

loop_
  _atom_site_aniso_label
  _atom_site_aniso_U_11
  _atom_site_aniso_U_22
  _atom_site_aniso_U_33
  _atom_site_aniso_U_23
  _atom_site_aniso_U_13
  _atom_site_aniso_U_12
 C1 0.094(14) 0.094(14) 0.057(17) 0.000 0.000 0.000
 C5 0.115(12) 0.095(15) 0.059(9) -0.006(9) 0.003(8) -0.020(11)
 C4 0.108(12) 0.085(14) 0.076(11) 0.000(9) 0.019(9) -0.021(11)
 C3 0.072(10) 0.070(12) 0.094(11) -0.008(8) 0.003(8) -0.003(10)
 C2 0.082(9) 0.092(13) 0.070(10) -0.002(8) 0.001(8) -0.001(9)
 C7 0.083(10) 0.099(14) 0.060(9) 0.006(8) -0.005(8) -0.005(10)
 C6 0.105(13) 0.114(17) 0.083(11) -0.012(10) 0.006(9) -0.022(12)
 C8 0.173(19) 0.052(11) 0.067(9) 0.000(8) 0.004(9) 0.033(13)
 N1 0.122(14) 0.138(17) 0.070(9) -0.024(9) -0.028(8) 0.022(12)
 C9 0.124(13) 0.099(17) 0.079(11) -0.020(11) 0.014(8) -0.001(13)
 C10 0.114(13) 0.101(16) 0.063(11) -0.023(11) 0.006(10) -0.006(13)
 C11 0.117(12) 0.062(12) 0.068(11) -0.002(9) 0.024(9) 0.009(12)
 O1 0.26(3) 0.28(4) 0.102(16) 0.03(2) 0.014(19) -0.01(3)

_geom_special_details
;
 All esds (except the esd in the dihedral angle between two l.s. planes)
 are estimated using the full covariance matrix.  The cell esds are taken
 into account individually in the estimation of esds in distances, angles
 and torsion angles; correlations between esds in cell parameters are only
 used when they are defined by crystal symmetry.  An approximate (isotropic)
 treatment of cell esds is used for estimating esds involving l.s. planes.
;
loop_
  _geom_bond_atom_site_label_1
  _geom_bond_atom_site_label_2
  _geom_bond_distance
  _geom_bond_site_symmetry_2
  _geom_bond_publ_flag
 C1 C2 1.587(15) 12_666 ?
 C1 C2 1.587(15) 14 ?
 C1 C2 1.587(15) . ?
 C1 C2 1.587(15) 7_454 ?
 C5 C4 1.440(13) . ?
 C5 C6 1.433(13) . ?
 C5 N1 1.58(2) . ?
 C4 H4 0.9300 . ?
 C4 C3 1.442(13) . ?
 C3 H3 0.9300 . ?
 C3 C2 1.433(13) . ?
 C2 C7 1.435(13) . ?
 C7 H7 0.9300 . ?
 C7 C6 1.436(13) . ?
 C6 H6 0.9300 . ?
 C8 H8 0.9300 . ?
 C8 N1 1.36(3) . ?
 C8 C9 1.53(2) . ?
 C9 C10 1.436(11) . ?
 C9 C11 1.437(11) . ?
 C10 H10 0.9300 . ?
 C10 C11 1.439(11) 9_567 ?
 C11 H11 0.9300 . ?
 O1 H1A 0.8500 . ?
 O1 H1B 0.8499 . ?

loop_
  _geom_angle_atom_site_label_1
  _geom_angle_atom_site_label_2
  _geom_angle_atom_site_label_3
  _geom_angle
  _geom_angle_site_symmetry_1
  _geom_angle_site_symmetry_3
  _geom_angle_publ_flag
 C2 C1 C2 113.6(7) 12_666 7_454 ?
 C2 C1 C2 101.5(13) 7_454 . ?
 C2 C1 C2 113.6(7) 7_454 14 ?
 C2 C1 C2 113.6(7) 14 . ?
 C2 C1 C2 113.6(7) 12_666 . ?
 C2 C1 C2 101.5(13) 12_666 14 ?
 C4 C5 N1 124.5(14) . . ?
 C6 C5 C4 120.4(9) . . ?
 C6 C5 N1 113.4(14) . . ?
 C5 C4 H4 120.4 . . ?
 C5 C4 C3 119.3(9) . . ?
 C3 C4 H4 120.4 . . ?
 C4 C3 H3 120.0 . . ?
 C2 C3 C4 120.0(9) . . ?
 C2 C3 H3 120.0 . . ?
 C3 C2 C1 116.1(10) . . ?
 C3 C2 C7 120.4(9) . . ?
 C7 C2 C1 122.3(10) . . ?
 C2 C7 H7 120.2 . . ?
 C2 C7 C6 119.7(9) . . ?
 C6 C7 H7 120.2 . . ?
 C5 C6 C7 120.1(9) . . ?
 C5 C6 H6 120.0 . . ?
 C7 C6 H6 120.0 . . ?
 N1 C8 H8 120.2 . . ?
 N1 C8 C9 120(2) . . ?
 C9 C8 H8 120.2 . . ?
 C8 N1 C5 112.2(19) . . ?
 C10 C9 C8 116.8(16) . . ?
 C10 C9 C11 120.1(8) . . ?
 C11 C9 C8 123.1(16) . . ?
 C9 C10 H10 119.9 . . ?
 C9 C10 C11 120.1(8) . 9_567 ?
 C11 C10 H10 119.9 9_567 . ?
 C9 C11 C10 119.7(8) . 9_567 ?
 C9 C11 H11 120.1 . . ?
 C10 C11 H11 120.1 9_567 . ?
 H1A O1 H1B 104.5 . . ?

_shelx_res_file
;
TITL COF-300-H2O_Cryo in I4(1)/a
    1.res
    created by SHELXL-2017/1 at 20:27:58 on 05-May-2019
CELL 0.0251 19.9 19.9 9.3 90 90 90
ZERR 4 0 0 0 0 0 0
LATT 2
SYMM 0.75-Y,0.25+X,0.25+Z
SYMM 0.5-X,-Y,0.5+Z
SYMM 0.75+Y,0.75-X,0.75+Z
SFAC C N O H
UNIT 164 16 16 144
EQIV $1 -X,1-Y,2-Z
SADI C2 C4 C2 C6 C6 C4 C3 C7 C7 C5 C5 C3 C9 C11_$1 C9 C10_$1 C10_$1 C11_$1 =
 C10 C11 C11 C9_$1 C9_$1 C10
SADI C3 C2 C4 C3 C5 C4 C6 C5 C7 C6 C7 C2 C9 C11 C9 C10 C11_$1 C10 C9_$1 =
 C11_$1 C9_$1 C10_$1 C11 C10_$1
FLAT C2 C7 C6 C5 C4 C3
FLAT C9 C10 C11_$1 C9_$1 C10_$1 C11
RIGU C11 C9 C8 C10 N1 C5 C4 C3 C2 C7 C6 C1

L.S. 99
PLAN  1
SIZE 0.0004 0.0004 0.001
list 6
BOND $H
fmap 2 53
acta
REM <olex2.extras>
REM <HklSrc "%.\\1.hkl">
REM </olex2.extras>

WGHT    0.200000  150.000000
FVAR       0.46173
C1    1    0.000000    0.250000    0.125000    10.25000    0.09393    0.09393 =
         0.05666    0.00000    0.00000    0.00000
C5    1    0.023239    0.398171    0.476171    11.00000    0.11452    0.09463 =
         0.05922   -0.00596    0.00305   -0.01993
C4    1   -0.041001    0.367672    0.447311    11.00000    0.10782    0.08509 =
         0.07600   -0.00001    0.01923   -0.02055
AFIX  43
H4    4   -0.077025    0.374672    0.509229    11.00000   -1.20000
AFIX   0
C3    1   -0.048829    0.326151    0.321299    11.00000    0.07228    0.07019 =
         0.09408   -0.00785    0.00305   -0.00308
AFIX  43
H3    4   -0.090881    0.309086    0.297434    11.00000   -1.20000
AFIX   0
C2    1    0.008214    0.311214    0.232917    11.00000    0.08160    0.09175 =
         0.07002   -0.00249    0.00120   -0.00113
C7    1    0.072244    0.341306    0.262640    11.00000    0.08252    0.09944 =
         0.05988    0.00638   -0.00527   -0.00452
AFIX  43
H7    4    0.108796    0.332617    0.203168    11.00000   -1.20000
AFIX   0
C6    1    0.079613    0.384899    0.384649    11.00000    0.10506    0.11407 =
         0.08299   -0.01230    0.00631   -0.02182
AFIX  43
H6    4    0.121016    0.404538    0.404285    11.00000   -1.20000
AFIX   0
C8    1   -0.011340    0.454958    0.696752    11.00000    0.17324    0.05192 =
         0.06684   -0.00021    0.00407    0.03282
AFIX  43
H8    4   -0.053309    0.455919    0.652811    11.00000   -1.20000
AFIX   0
N1    2    0.043167    0.432751    0.623205    11.00000    0.12161    0.13812 =
         0.06990   -0.02386   -0.02765    0.02208
C9    1   -0.003310    0.478459    0.852763    11.00000    0.12387    0.09886 =
         0.07888   -0.02043    0.01444   -0.00129
C10   1   -0.063613    0.497289    0.927444    11.00000    0.11362    0.10091 =
         0.06272   -0.02297    0.00571   -0.00561
AFIX  43
H10   4   -0.104752    0.495935    0.880085    11.00000   -1.20000
AFIX   0
C11   1    0.060517    0.481755    0.924623    11.00000    0.11673    0.06225 =
         0.06828   -0.00234    0.02438    0.00892
AFIX  43
H11   4    0.099668    0.470392    0.875729    11.00000   -1.20000
AFIX   6

O1    3    0.193031    0.468125    0.625196    11.00000    0.25504    0.28261 =
         0.10181    0.03354    0.01385   -0.00918
H1A   4    0.234990    0.469863    0.608495    11.00000   -1.50000
H1B   4    0.174906    0.469779    0.542522    11.00000   -1.50000
AFIX   0
HKLF 4




REM  COF-300-H2O_Cryo in I4(1)/a
REM R1 =  0.2911 for     858 Fo > 4sig(Fo)  and  0.3074 for all    1027 data
REM    114 parameters refined using    219 restraints

END

WGHT      0.2000      0.0000

REM Highest difference peak  0.522,  deepest hole -0.501,  1-sigma level  0.145
Q1    1   0.1591  0.4181  0.3429  11.00000  0.05    0.52
;
_shelx_res_checksum                95824
_shelx_hkl_file
;
   2  10  -4   30.22    0.91
   0   8  -4   14.70    0.44
   1   5  -2 2043.63   61.31
  -2  -2   0  139.31    4.18
  -4  -8   2  922.56   27.68
  -2   6  -4   64.13    1.92
  -1   3  -2   53.19    1.60
  -1  -5   2 2058.50   61.75
  -3  -7   2  180.03    5.40
  -5  -9   2   55.97    1.68
  -6 -10   2  912.37   27.37
  -3   5  -4  114.74    3.44
  -2  -6   2  146.66    4.40
  -7 -11   2   47.46    1.42
  -8 -12   2   72.35    2.17
  -4   4  -4  437.17   13.11
  12  17  -3   17.17    0.51
  -2   2  -2  273.59    8.21
   0  -4   2   27.91    0.84
  -2 -10   4  190.96    5.73
  -3 -11   4   21.77    0.65
  -5 -13   4    9.90    0.30
  -6 -14   4    7.46    0.22
  -7 -15   4   14.84    0.44
  -8 -16   4    7.32    0.22
  -9 -17   4   15.34    0.46
  11  16  -3   12.98    0.39
  -1  -9   4   18.37    0.55
  -4 -12   4   11.77    0.35
   1  -3   2   55.54    1.67
   0  -8   4   12.79    0.38
   7  16  -5   32.92    0.99
  10  15  -3   35.34    1.06
  -3   1  -2  185.03    5.55
   1  -7   4   46.24    1.39
  -2 -14   6   25.38    0.76
  -3 -15   6    7.64    0.23
  -4 -16   6    7.89    0.24
  12  13  -1   59.59    1.79
   2  -2   2  210.62    6.32
   2  -6   4   77.77    2.33
  -1 -13   6    3.61    0.11
   3  -5   4  243.00    7.29
   1 -11   6   11.39    0.34
   1  14  -7   20.59    0.62
   5  14  -5   11.12    0.33
  -7   1  -4   14.82    0.44
   2 -10   6  145.95    4.38
   8  13  -3    2.52    0.07
   4  -4   4  776.23   23.29
   3  -9   6    2.34    0.07
   0  13  -7    3.19    0.10
   4  13  -5  139.40    4.18
  13  10   1   30.67    0.92
   4  -8   6   23.19    0.70
 -12   0  -6    4.85    0.15
  -8   0  -4   11.10    0.33
   7  12  -3   72.56    2.18
   5  -7   6  278.23    8.35
  -1  12  -7   22.99    0.69
   3  12  -5   12.62    0.38
  10  11  -1   43.21    1.30
   3  -1   2  249.61    7.49
  -2  11  -7   17.57    0.53
   2  11  -5   23.67    0.71
   6  11  -3   63.38    1.90
   9  10  -1   13.00    0.39
  12   9   1    7.46    0.22
   5  -3   4   41.50    1.24
   6  -6   6  140.47    4.21
   6 -10   8   20.71    0.62
  -3  10  -7   13.20    0.40
 -16  -4  -6   19.86    0.60
   7  -5   6   82.06    2.46
  -4   9  -7  101.48    3.04
   5  10  -3   32.60    0.98
  -5  -1  -2 5375.46  161.26
   8   9  -1 1157.93   34.74
  11   8   1   64.90    1.95
  -4   0  -2   57.81    1.73
  15   4   5    6.28    0.19
   8  -4   6   76.43    2.29
  -5   8  -7   83.03    2.49
   0   9  -5   42.01    1.26
  -9  -1  -4   28.07    0.84
   4   9  -3  167.07    5.01
   6  -2   4   39.40    1.18
   6  16  -6   18.26    0.55
  10  16  -4   25.64    0.77
 -10  -2  -4  237.66    7.13
 -13 -14   1   17.52    0.53
  -6   7  -7  116.34    3.49
  -1   8  -5   64.81    1.94
   7   8  -1  231.18    6.94
  -4 -13   5   63.39    1.90
  -5 -14   5   34.23    1.03
   9  15  -4   25.30    0.76
   3   8  -3  307.17    9.22
  -7 -12   3  148.71    4.46
   9  -3   6   27.06    0.81
  -1 -14   7   39.55    1.19
  10   7   1   97.14    2.91
  -6 -11   3   41.51    1.24
  -3 -12   5   35.13    1.05
  -8   5  -7   29.27    0.88
   0 -13   7   13.30    0.40
  -8  -9   1  455.37   13.66
 -11   1  -6   12.21    0.37
   4  14  -6   12.33    0.37
   8  14  -4   11.49    0.34
   2   7  -3 1067.73   32.03
  11  13  -2    6.16    0.18
   6   7  -1  131.79    3.95
  -4  -9   3  263.76    7.91
  -5 -10   3   29.37    0.88
  -2 -11   5   26.50    0.79
   3  13  -6   12.43    0.37
   1 -12   7   72.17    2.16
   9   6   1  139.15    4.17
  -7  -8   1  150.38    4.51
  -1 -10   5    8.11    0.24
  -2  12  -8   16.13    0.48
   2 -11   7   53.15    1.59
   0  -9   5   50.38    1.51
  -3   6  -5  197.45    5.92
   6  12  -4   29.90    0.90
  10  12  -2    6.89    0.21
  -3  -8   3  152.57    4.58
   3 -10   7   15.53    0.47
   1   6  -3  328.84    9.87
  13  11   0    7.42    0.22
 -11 -17   4   12.42    0.37
  -6  -7   1  179.78    5.39
  -2  -7   3  976.72   29.30
   7  -1   4   24.21    0.73
   1  -8   5   30.84    0.92
   4  -9   7  149.47    4.48
  -4   5  -5  244.30    7.33
   9  11  -2   14.52    0.44
   5   6  -1   12.81    0.38
 -10  -7  -1  194.91    5.85
  -6 -16   6    6.92    0.21
   8   5   1  659.33   19.78
  -9 -15   4    7.69    0.23
  -9   4  -7   24.09    0.72
  10  -2   6   24.10    0.72
   5  -8   7   47.85    1.44
   4  10  -4  140.73    4.22
  12  15  -3    8.17    0.24
  12  10   0   73.52    2.21
  -4 -14   6    4.83    0.14
   3  14  -7    4.14    0.12
  -1  -6   3  422.53   12.68
   8  10  -2   79.19    2.38
  -5  -6   1   39.83    1.19
 -10   3  -7   24.60    0.74
  -1   9  -6   80.48    2.41
   7  14  -5   35.33    1.06
   4   5  -1  965.04   28.95
 -11 -13   2   59.39    1.78
  15   9   2   22.19    0.67
  -3 -13   6   20.93    0.63
   6  -7   7  219.16    6.57
  -5   4  -5  131.28    3.94
   4   0   2  304.47    9.13
  11   4   3    1.31    0.04
   3  -6   5   93.28    2.80
   1 -13   8   12.91    0.39
   2  13  -7   21.65    0.65
 -15  -8  -3   20.01    0.60
  -6 -12   4   76.41    2.29
  -9  -6  -1  153.93    4.62
 -10 -12   2    8.43    0.25
  -2 -12   6   29.13    0.87
  11  -1   6   28.93    0.87
  -7   7  -8   34.28    1.03
 -11   2  -7   95.54    2.87
  -2   8  -6  278.97    8.37
   2 -12   8   45.20    1.36
   1  12  -7   44.43    1.33
  -4  -5   1  869.24   26.08
  -5 -11   4   27.32    0.82
   4  -5   5  303.14    9.09
   7  -6   7   47.50    1.42
 -14  -7  -3  127.80    3.83
  -1   4  -3  237.09    7.11
  -6   3  -5   29.24    0.88
   8   0   4   31.93    0.96
   3 -11   8    9.63    0.29
  -8   6  -8   32.81    0.98
  -3   7  -6  896.09   26.88
   5  12  -5   32.07    0.96
   3   4  -1 7412.22  222.37
  -4 -10   4  199.91    6.00
   8  -5   7   29.46    0.88
   0  11  -7   24.47    0.73
   2   8  -4   68.99    2.07
 -12   1  -7    9.98    0.30
   9  12  -3  106.93    3.21
 -13 -11   0   37.87    1.14
  -8 -10   2   92.57    2.78
   6   8  -2  245.64    7.37
  -8  -5  -1   57.16    1.71
   0 -10   6   12.91    0.39
   4  11  -5   74.38    2.23
  -3  -4   1 5966.42  178.99
  -7 -14   5   44.34    1.33
   7   4   1  120.65    3.62
   1  -9   6   34.77    1.04
  -3 -14   7    3.15    0.09
  -1  10  -7  111.76    3.35
   6  14  -6   40.43    1.21
   1  -4   3   83.16    2.49
   8  11  -3    9.64    0.29
   5  -4   5   89.61    2.69
  -4   6  -6  130.06    3.90
   1   7  -4   22.70    0.68
  -6  -8   2  106.95    3.21
  -2 -13   7   32.24    0.97
   5  -9   8    2.36    0.07
   3  10  -5   37.37    1.12
   5   7  -2  341.14   10.23
  -2  -8   4  131.60    3.95
   2  -8   6  212.10    6.36
  -2   9  -7   15.51    0.46
   5  13  -6   14.83    0.44
  -2   3  -3  539.82   16.19
  -7  -4  -1 1631.37   48.94
  -1 -12   7   22.85    0.69
 -12  -5  -3  272.90    8.19
 -15  -9  -2    4.61    0.14
  -5 -12   5   28.12    0.84
  -7   2  -5   29.55    0.89
   9  13  -4   29.37    0.88
   7  10  -3   15.48    0.46
 -10  -8   0  709.67   21.29
  -9 -12   3  112.22    3.37
   9  -4   7   75.05    2.25
   6  -8   8   32.94    0.99
   6  15  -7   16.25    0.49
  11  10  -1   13.59    0.41
  -4 -11   5  138.76    4.16
   3  -7   6  410.44   12.31
   0 -11   7  390.04   11.70
   4  12  -6   15.72    0.47
   2   9  -5   18.84    0.56
  -5  -7   2  309.48    9.28
  -1  -7   4   51.09    1.53
  -3   8  -7   13.77    0.41
   8  12  -4  274.55    8.24
 -13 -12   1   33.48    1.00
  -7 -15   6    0.37    0.01
  12   0   6    5.52    0.17
  -8 -11   3   49.81    1.49
   2  -3   3  460.68   13.82
   7  -7   8   11.81    0.35
  14  15  -3    1.68    0.05
   2   3  -1  387.11   11.61
 -11 -15   4   20.36    0.61
   6  -3   5   34.27    1.03
   5  14  -7    7.17    0.21
   6   9  -3   43.00    1.29
   4   6  -2 2808.57   84.26
   1 -10   7  162.91    4.89
  -2  10  -8   15.27    0.46
 -11   3  -8   16.65    0.50
   3  11  -6  131.14    3.93
   1   8  -5   40.41    1.21
  12  12  -2   20.51    0.61
  16  12   0   52.00    1.56
  -3 -10   5   34.03    1.02
  -6 -14   6   41.77    1.25
   4  -6   6  266.76    8.00
  10  -3   7   28.92    0.87
 -13   0  -7   15.10    0.45
  -4   7  -7  103.44    3.10
   9  14  -5   12.71    0.38
 -12 -11   1   48.78    1.46
  10   9  -1    8.95    0.27
  -2  -3   1  368.00   11.04
  -7 -10   3   16.15    0.48
  -6   4  -6   67.24    2.02
   7  11  -4  200.96    6.03
  -5 -13   6   25.10    0.75
  -1 -13   8   16.84    0.50
  -1   5  -4   60.07    1.80
  13  14  -3   16.72    0.50
  14   9   1   18.75    0.56
   8  -6   8   10.77    0.32
  -8   1  -5   80.84    2.42
  -3   2  -3  373.59   11.21
   5   8  -3 1365.54   40.97
  -4  -6   2 1734.09   52.02
  -2  -9   5   29.06    0.87
   2  -9   7   38.21    1.15
 -12   2  -8    3.77    0.11
  -3   9  -8   38.23    1.15
   2  10  -6  155.20    4.66
 -14  -8  -2   65.54    1.97
   8  13  -5   39.61    1.19
 -11 -10   1   97.49    2.92
   0 -12   8   11.64    0.35
  -6  -9   3   54.70    1.64
  -4 -12   6   19.85    0.59
  -8 -12   4  264.24    7.93
   3  12  -7   83.44    2.50
   9   8  -1  181.54    5.45
  -6 -15   7   13.22    0.40
   0   7  -5   55.96    1.68
   6  10  -4   86.01    2.58
  -5   6  -7   10.76    0.32
   7  12  -5    4.68    0.14
  10   3   3  527.54   15.83
  -7 -11   4  171.30    5.14
  -1  -8   5   21.60    0.65
  -3 -11   6  129.52    3.89
  -5 -14   7    3.02    0.09
   3  -8   7    2.75    0.08
  -4   8  -8   28.73    0.86
   1   9  -6   33.44    1.00
   3   5  -2   28.45    0.85
  10  10  -2   10.96    0.33
   1  -5   4    3.64    0.11
   2  11  -7  121.56    3.65
  -5  -8   3 1436.67   43.10
   3  13  -8   14.25    0.43
 -11  -4  -3  187.92    5.64
  11  12  -3   75.91    2.28
  -9 -14   5   45.63    1.37
  -2   4  -4  117.11    3.51
   4   7  -3  504.50   15.13
  -6  -3  -1  545.26   16.36
   7  -2   5    8.54    0.26
  -7   3  -6  219.52    6.59
   3  -2   3  596.46   17.89
  -2 -10   6   57.81    1.73
  -4 -13   7    4.84    0.14
  -1   6  -5  324.82    9.74
   6  11  -5  224.07    6.72
  -3  -5   2   34.07    1.02
   4  -7   7  112.34    3.37
  11  -2   7   84.35    2.53
  -6   5  -7   76.94    2.31
 -14  -9  -1   15.38    0.46
  -9  -8   1  126.66    3.80
 -11 -11   2   21.53    0.65
  -8 -13   5   23.56    0.71
  -4   9  -9   23.24    0.70
  -5   7  -8   43.16    1.29
   2  12  -8   18.81    0.56
   1  10  -7  167.74    5.03
   0   8  -6  252.47    7.57
   7  13  -6   12.96    0.39
  -6 -10   4  163.65    4.91
   0  -7   5   91.53    2.75
 -15  -3  -6   25.58    0.77
   8   7  -1  236.55    7.10
   6  -4   6  120.11    3.60
  -3 -12   7   62.96    1.89
  12  15  -5    2.20    0.07
  -4  -7   3  235.28    7.06
   3  -9   8    9.51    0.28
 -14  -1  -7   39.50    1.18
  10  11  -3   16.26    0.49
   9   9  -2   50.88    1.53
  14   3   5   59.36    1.78
 -13   1  -8    3.02    0.09
   2  -4   4  245.45    7.36
  -7 -12   5   27.76    0.83
  -1  -9   6   17.35    0.52
   3   6  -3  448.13   13.44
 -10 -10   2   14.02    0.42
  -5   8  -9   11.69    0.35
  -7   4  -7  331.93    9.96
   0   9  -7  160.27    4.81
   4   8  -4  204.99    6.15
   1   2  -1 4115.41  123.46
  14  11  -1    1.81    0.05
 -13 -15   4   12.17    0.36
  13   1   6   36.05    1.08
  -2 -11   7  108.81    3.26
   5  -6   7   23.73    0.71
  -6   6  -8   27.87    0.84
 -12  -6  -2  109.75    3.29
   2   4  -2  378.69   11.36
   1  -6   5  642.93   19.29
  -8 -14   6   16.87    0.51
  -1   7  -6   19.00    0.57
  12   7   1   26.95    0.81
 -11 -12   3   56.78    1.70
  -8   2  -6   92.12    2.76
  -3   3  -4  286.92    8.61
  10  12  -4  130.21    3.91
  -8  -7   1  240.67    7.22
  -1  -2   1 2858.43   85.75
  18  11   1    3.10    0.09
  -6 -11   5  253.68    7.61
   4  -8   8    8.00    0.24
  -2   5  -5   54.67    1.64
  -4   1  -3  401.17   12.03
 -13  -8  -1   38.59    1.16
  -7  -5   0   66.76    2.00
   0  -8   6  193.91    5.82
  -3 -13   8   20.09    0.60
  -2  -4   2  404.90   12.15
  17   9   2   16.05    0.48
  -9   0  -5  244.29    7.33
   9  10  -3   59.35    1.78
   9   1   4   34.75    1.04
  -7 -13   6   26.73    0.80
  -1 -10   7  430.68   12.92
   3 -10   9    2.73    0.08
   6  13  -7    4.94    0.15
   0  10  -8   14.28    0.43
   4   9  -5   69.77    2.09
  -3  -6   3  327.70    9.83
  10  13  -5   23.58    0.71
   7   6  -1  741.27   22.24
  -4  -8   4   74.15    2.22
  -2 -12   8   43.54    1.31
  -1   8  -7   70.19    2.11
   9  11  -4  238.60    7.16
  10  14  -6   16.41    0.49
   6   4   0 1959.34   58.78
  -5 -10   5   15.59    0.47
   3   7  -4   22.26    0.67
  -2   6  -6  347.41   10.42
   7  -3   6  187.15    5.61
   6  -5   7   98.98    2.97
  -7   5  -8   32.40    0.97
   4  10  -6   47.67    1.43
 -10 -12   4  152.19    4.57
   5  -7   8   16.34    0.49
  -1   9  -8   17.02    0.51
   9  12  -5   15.08    0.45
   8   9  -3  102.25    3.07
  -9 -10   3  101.97    3.06
   8  -1   5   27.85    0.84
   1  -7   6   53.13    1.59
   0  -9   7   90.19    2.71
  14  14  -4   19.15    0.57
   2   5  -3  419.36   12.58
  -6  -4   0 1599.08   47.97
  -7  -6   1  303.96    9.12
  11   6   1   54.02    1.62
   2  -5   5   20.49    0.61
   3  -3   4  358.90   10.77
  -8   3  -7   35.01    1.05
  -2   7  -7  237.35    7.12
  -3   4  -5  460.94   13.83
   3   8  -5   59.61    1.79
 -17  -8  -3   51.57    1.55
 -11  -5  -2  171.00    5.13
  -4  -9   5  121.46    3.64
  -5 -11   6    6.31    0.19
   8  10  -4  519.01   15.57
  12   9  -1   30.66    0.92
   4  12  -8   16.66    0.50
  13  12  -3   10.65    0.32
   7   7  -2   51.02    1.53
  -2  -5   3  303.30    9.10
   4  -1   3  748.24   22.45
  -2   8  -8   14.46    0.43
   3   9  -6   43.20    1.30
  -9 -11   4  215.49    6.46
 -10 -13   5   32.84    0.98
   1  -8   7  131.71    3.95
   0 -10   8   46.02    1.38
   6  -6   8   22.53    0.68
  -8   4  -8    1.89    0.06
 -13 -10   1   23.35    0.70
   7  -4   7  221.73    6.65
  -3   5  -6   74.59    2.24
   8  11  -5   38.25    1.15
   2   6  -4   35.99    1.08
  13  13  -4    1.83    0.05
  -8  -9   3   54.39    1.63
  15   6   3   28.77    0.86
   2  -6   6  246.63    7.40
  -5 -12   7   24.55    0.74
   3  10  -7   40.99    1.23
 -16  -6  -4   40.34    1.21
  -4   2  -4  992.56   29.78
   1   3  -2  184.41    5.53
  -4 -10   6   29.02    0.87
  -9   1  -6   29.49    0.88
   7   8  -3   71.54    2.15
 -18 -11  -1   14.76    0.44
 -12  -8   0   93.63    2.81
  16   9   1   15.63    0.47
  13  14  -5   14.16    0.42
  -3  -8   5   75.65    2.27
 -10 -14   6   31.71    0.95
   3  11  -8   27.60    0.83
  -3   6  -7   49.16    1.47
   8  12  -6    5.05    0.15
  17  13  -2    7.07    0.21
   6   5  -1   52.16    1.56
  -7  -7   2   79.83    2.39
   3  -4   5  520.07   15.60
  -1  -3   2   44.91    1.35
  -9 -12   5    3.31    0.10
   8  -2   6  130.89    3.93
  12  11  -3   42.78    1.28
 -13 -11   2   55.95    1.68
  13   0   7    2.92    0.09
   1  -9   8   28.23    0.85
   6  -7   9    1.90    0.06
  -8 -10   4  427.85   12.84
  -4 -11   7   19.58    0.59
  -3   7  -8   16.94    0.51
  -9   2  -7  118.36    3.55
   2   8  -6   74.38    2.23
   7  10  -5  263.27    7.90
  16  10   0   10.50    0.31
  10   4   2   25.25    0.76
  -2  -6   4   33.85    1.02
   2  -7   7  460.01   13.80
  -5  -2  -1 2781.36   83.44
  12  13  -5    8.72    0.26
   1   4  -3  897.95   26.94
   6   6  -2  216.53    6.50
  -7  -8   3   49.03    1.47
  14   5   3   55.07    1.65
  -6  -5   1   37.79    1.13
  -3  -9   6   38.54    1.16
   2   9  -7  112.35    3.37
   7  11  -6   36.19    1.09
  -8 -11   5   23.05    0.69
 -10  -3  -3 1087.40   32.62
  -4 -12   8   28.37    0.85
   7  12  -7   11.89    0.36
  -4   3  -5  131.18    3.94
   6   7  -3  318.22    9.55
 -12 -10   2   25.28    0.76
 -13 -13   4   14.63    0.44
   1   5  -4   39.34    1.18
  -1  -4   3  570.96   17.13
   3  -5   6  198.50    5.96
  -3 -10   7   33.24    1.00
  11  10  -3   24.19    0.73
   2  -8   8   35.48    1.06
  -9   3  -8    3.30    0.10
  -4   4  -6   95.19    2.86
 -15  -4  -5   15.09    0.45
   6   9  -5  171.56    5.15
   6   8  -4   57.94    1.74
  11  11  -4   94.73    2.84
 -12 -11   3   31.43    0.94
   4  -2   4 1111.55   33.35
   1   6  -5  703.32   21.10
  -6  -6   2  164.58    4.94
  14   4   4  111.17    3.33
   7  -6   9    8.72    0.26
  -4   5  -7   58.01    1.74
  10   5   1    4.95    0.15
  -2  -8   6   88.93    2.67
   8  -3   7   67.41    2.02
  -3 -11   8   18.43    0.55
  -4   6  -8   41.91    1.26
   1   7  -6   54.11    1.62
  11  13  -6   26.57    0.80
 -11  -8   1   38.95    1.17
  -7 -10   5  222.67    6.68
  -4   7  -9   16.19    0.49
   1   8  -7   14.61    0.44
   3  -6   7   48.94    1.47
   1   9  -8    6.12    0.18
  -6  -7   3  356.56   10.70
 -12 -12   4   44.55    1.34
 -16  -9  -1    8.40    0.25
  10   6   0   29.72    0.89
 -17 -13   2    6.60    0.20
  -1  -5   4   98.41    2.95
  -2  -9   7   30.47    0.91
  15  12  -3   15.46    0.46
  15  11  -2    9.45    0.28
  10   7  -1  177.07    5.31
 -11  -9   2   35.54    1.07
 -12 -13   5   17.83    0.53
   4  -3   5  117.18    3.52
  -7 -11   6    8.05    0.24
 -16 -10   0   18.06    0.54
   8  -4   8   10.04    0.30
  -1  -6   5  437.86   13.14
   9   0   5   68.52    2.06
 -15  -2  -7   10.21    0.31
  10  11  -5   70.87    2.13
  10   9  -3   51.02    1.53
  10   8  -2   61.41    1.84
   5   4  -1 3074.23   92.23
 -16 -11   1   45.15    1.35
  -6  -8   4   35.89    1.08
  13  -1   8   10.19    0.31
  10  12  -6    4.41    0.13
  10  10  -4   29.00    0.87
 -10  -4  -2   71.08    2.13
 -11 -10   3   43.80    1.31
 -10   1  -7  252.96    7.59
   5   5  -2 1245.85   37.38
  -6  -9   5  155.26    4.66
 -10   2  -8    2.59    0.08
   0   8  -8   14.67    0.44
   5  10  -7   39.25    1.18
 -16 -12   2   15.25    0.46
 -11 -11   4   57.34    1.72
   4  -4   6  111.69    3.35
   5   9  -6    9.00    0.27
   5   8  -5   20.71    0.62
   5   7  -4   72.21    2.17
   5   6  -3   60.30    1.81
  -1  -7   6   93.99    2.82
  -5   5  -8   32.44    0.97
  -5   4  -7  254.84    7.65
   0   7  -7   51.97    1.56
  -5  -4   1 2677.62   80.33
 -10   0  -6   26.02    0.78
  -5   3  -6  202.84    6.09
   0   6  -6   56.59    1.70
 -10  -1  -5   21.48    0.64
   0   5  -5   18.89    0.57
  -1  -8   7   22.07    0.66
   0   9  -9    5.38    0.16
 -10  -7   1   59.26    1.78
   9   3   2  313.69    9.41
   0   4  -4  549.97   16.50
  -5  -5   2 1856.24   55.69
   0   3  -3  182.96    5.49
   0   2  -2 1120.12   33.60
   0   1  -1 1757.68   52.73
   4  -5   7  100.83    3.02
   9  12  -7    7.12    0.21
  -1  -9   8   16.84    0.50
   9  11  -6   11.68    0.35
 -10  -9   3   37.69    1.13
   4  -6   8   41.49    1.24
  -5   2  -5   38.66    1.16
   9  10  -5   28.38    0.85
   0  -1   1 1718.99   51.57
  -5  -6   3   48.69    1.46
  -1 -10   9    7.07    0.21
   4   9  -7   44.98    1.35
   0  -2   2 1807.89   54.24
 -10 -10   4   36.89    1.11
  -5  -7   4   64.13    1.92
   9  -1   6   53.14    1.59
 -10 -11   5   62.35    1.87
   4  -7   9    9.81    0.29
   9   8  -3   43.31    1.30
   0  -3   3  354.65   10.64
  -5  -8   5    4.39    0.13
   9  -2   7  132.69    3.98
   4   8  -6   58.72    1.76
  -5   1  -4   46.54    1.40
   9   7  -2   26.79    0.80
   9   6  -1  181.17    5.43
   0  -4   4 1295.48   38.86
 -10 -12   6   11.12    0.33
  -1   7  -8   65.38    1.96
   9   4   1 1071.17   32.14
  -5 -10   7   29.38    0.88
   0  -6   6  130.14    3.90
  -5 -11   8   13.70    0.41
   9  -3   8   10.33    0.31
   0  -7   7   65.41    1.96
  -1   6  -7    6.24    0.19
  -6   4  -8  117.32    3.52
   8  10  -6   84.31    2.53
   4   6  -4   77.00    2.31
  17  12  -3    4.12    0.12
 -14 -10   2   62.23    1.87
  -9 -10   5   35.00    1.05
  -6   3  -7  134.88    4.05
  12  12  -6   13.07    0.39
   8   9  -5   21.43    0.64
   4   5  -3   47.09    1.41
 -14  -8   0   33.09    0.99
  13   8  -1   20.51    0.61
  -9  -8   3   22.74    0.68
  -9 -11   6   15.52    0.47
   5  -3   6  189.48    5.68
  -9 -12   7   22.59    0.68
   5  -4   7  121.81    3.65
  -2   7  -9   20.32    0.61
   3   8  -7   30.10    0.90
   8   8  -4  188.09    5.64
   4   4  -2 1811.68   54.35
   5  -2   5   29.46    0.88
   5  -5   8    6.02    0.18
  -1   4  -5   37.92    1.14
  17  11  -2    1.94    0.06
  -9  -6   1  124.37    3.73
  -9  -7   2   21.68    0.65
  -4  -9   7  147.81    4.43
  12  11  -5   30.41    0.91
 -14  -7  -1   41.41    1.24
  -4  -7   5   15.15    0.45
  -4  -8   6   84.13    2.52
  -2   6  -8  106.99    3.21
   3   7  -6  161.70    4.85
  17  10  -1    3.74    0.11
  -4  -6   4   70.67    2.12
   7  10  -7   20.86    0.63
  -6   2  -6  587.00   17.61
  13   7   0   48.48    1.45
   5  -1   4  137.93    4.14
  -1   3  -4  709.15   21.28
  12  10  -4   24.32    0.73
   8   7  -3   97.61    2.93
  -4  -4   2 2243.07   67.29
  -4  -5   3   79.52    2.39
 -13 -12   5    8.33    0.25
   1  -7   8   84.64    2.54
   7   9  -6  168.91    5.07
   4   3  -1 7129.87  213.90
  13   6   1   26.04    0.78
   5   1   2 2281.42   68.44
   2   9  -9   15.13    0.45
  -5   0  -3   33.76    1.01
  -9  -4  -1  852.59   25.58
   9   2   3  206.73    6.20
   8   6  -2  181.99    5.46
  -4  -3   1 9083.17  272.50
  -8 -10   6   89.53    2.69
   2   8  -8   12.49    0.37
   3   6  -5   94.03    2.82
  -8  -9   5   34.29    1.03
   1  -6   7   19.51    0.58
  -2   5  -7  281.13    8.43
  -9  -3  -2  773.43   23.20
  -8  -8   4  118.66    3.56
   6  10  -8  107.20    3.22
   7   8  -5  106.94    3.21
  12   8  -2  129.70    3.89
   2   7  -7  247.10    7.41
   8   5  -1  566.00   16.98
   1  -4   5   68.41    2.05
  11  10  -5   86.44    2.59
 -18  -8  -2    2.09    0.06
  -8  -7   3   73.03    2.19
  -3  -9   8    7.57    0.23
  -3   6  -9   48.55    1.46
 -12 -12   6   18.78    0.56
  -3  -8   7   52.92    1.59
   5   0   3   95.39    2.86
  -3  -7   6  181.39    5.44
  -7   3  -8   12.66    0.38
   6   9  -7   16.84    0.50
  -2   4  -6  144.64    4.34
   3   5  -4   59.16    1.77
 -13  -7   0  173.23    5.20
   4   2   0 6183.70  185.51
   1  -3   4  691.95   20.76
 -12 -11   5   64.06    1.92
   7   7  -4   31.24    0.94
  12   7  -1   18.24    0.55
  16   9  -1   13.84    0.41
  -8  -6   2  278.07    8.34
 -12 -10   4   27.86    0.84
  -7 -10   7   24.31    0.73
  -7 -11   8   20.68    0.62
   6  -5   9   11.28    0.34
  -6   1  -5  659.96   19.80
  11   9  -4   83.35    2.50
  15  11  -4   27.93    0.84
  -3  -6   5   50.57    1.52
   6  -4   8  129.49    3.88
   2   6  -6  384.89   11.55
  17   6   3   20.92    0.63
  -3   5  -8   96.32    2.89
   6   8  -6  159.97    4.80
  -1   2  -3   52.27    1.57
  -7  -9   6   95.04    2.85
  10  -1   7  247.14    7.41
   2  -7   9   10.25    0.31
 -17 -10   1    9.03    0.27
 -12  -9   3   37.45    1.12
  -7  -8   5  133.89    4.02
   6  -3   7  185.86    5.58
  14   1   7   36.88    1.11
   2  -6   8   64.15    1.92
   1   7  -8   99.44    2.98
  10  10  -6   49.94    1.50
   3   4  -3  443.74   13.31
 -13  -6  -1   99.28    2.98
  -8  -5   1  417.33   12.52
  -7   2  -7  275.77    8.27
  -4  -2   0 6179.75  185.39
  13   4   3   83.89    2.52
  -3  -5   4   42.05    1.26
   7   6  -3  105.90    3.18
  11   8  -3   60.58    1.82
   8   4   0  563.08   16.89
  12   6   0  143.40    4.30
 -12  -8   2   64.98    1.95
  -2  -8   8   17.61    0.53
  -2   3  -5   38.82    1.16
 -17  -9   0   62.73    1.88
  16   8   0   14.44    0.43
   1  -2   3   63.65    1.91
   2  -5   7   22.62    0.68
  -3   4  -7   69.96    2.10
  10   9  -5   87.17    2.61
 -16 -11   3   28.32    0.85
   6  -2   6  657.79   19.73
  -2  -7   7  163.67    4.91
  -6 -10   8   97.61    2.93
   2   5  -5   91.74    2.75
   6   7  -5  185.29    5.56
  -7  -7   4   92.53    2.78
 -11 -10   5   77.74    2.33
   2  -4   6  132.46    3.97
  -3  -4   3  402.50   12.07
  10   0   6   72.39    2.17
  -4   5  -9   11.17    0.33
   0   7  -9   17.98    0.54
   4   9  -9    7.98    0.24
   1   6  -7   32.13    0.96
   5   8  -7   90.22    2.71
  15   9  -2   17.90    0.54
  -6  -9   7   22.39    0.67
 -11  -9   4  112.89    3.39
  -2  -6   6  389.36   11.68
  14  10  -4  102.06    3.06
 -16 -10   2   37.60    1.13
  11   7  -2   39.50    1.18
  -7  -6   3  118.69    3.56
 -12   0  -8   26.42    0.79
  10   8  -4  196.20    5.89
  -6  -8   6  114.34    3.43
   8  10  -8   15.45    0.46
 -17  -8  -1   83.47    2.50
 -12  -7   1   14.63    0.44
 -15 -11   4    5.99    0.18
  -8  -4   0  481.19   14.44
   7   5  -2   99.24    2.98
   9   9  -6   11.56    0.35
 -11  -8   3   27.63    0.83
   5   7  -6   85.98    2.58
   6   6  -4   76.16    2.28
   0   6  -8  143.98    4.32
   4   8  -8   14.85    0.44
   3   3  -2  206.69    6.20
  -6  -7   5  290.64    8.72
  -1  -7   8   54.01    1.62
  13  10  -5    8.17    0.24
   2   4  -4  953.64   28.61
 -10  -9   5  113.41    3.40
  -2  -5   5   41.30    1.24
  -5  -9   8    4.61    0.14
 -12  -6   0  101.07    3.03
  11   6  -1  126.39    3.79
   2  -3   5   29.68    0.89
   3  -5   8   37.39    1.12
   1   5  -6   20.41    0.61
  -8   2  -8   12.73    0.38
   8   9  -7    4.19    0.13
  -3   3  -6   22.73    0.68
   9   8  -5   17.71    0.53
 -11  -7   2   19.69    0.59
  -7  -5   2  120.81    3.62
  -2   2  -4 1892.94   56.79
  10   7  -3   38.03    1.14
  -1   1  -2 3960.34  118.81
 -16  -8   0    8.97    0.27
   6  -1   5  688.94   20.67
  -5  -8   7  124.43    3.73
   7  -3   8    6.76    0.20
   4   7  -7  214.90    6.45
  -7   1  -6  561.03   16.83
  -3  -3   2  196.81    5.90
  -9 -10   7   20.03    0.60
  -1   6  -9   15.68    0.47
 -11  -1  -6   63.63    1.91
 -15  -9   2   29.83    0.89
 -10  -8   4  357.34   10.72
  -6  -6   4   79.98    2.40
  13   3   4   28.88    0.87
  12  10  -6   11.52    0.35
  13   9  -4   57.78    1.73
  14   8  -2   44.94    1.35
   1  -1   2 3591.05  107.73
 -14 -10   4   11.21    0.34
   3  -4   7   81.39    2.44
  -5   4  -9   20.36    0.61
   5   6  -5   27.51    0.82
  -6   0  -4   33.75    1.01
   6   5  -3   49.70    1.49
   7   4  -1 1768.74   53.06
  -2  -4   4  687.22   20.62
   7   9  -8   11.96    0.36
  19   8   1   35.93    1.08
  -9  -9   6   17.34    0.52
  -5  -7   6   54.63    1.64
   0  -7   9   18.45    0.55
   8   8  -6   32.62    0.98
  18   9  -1   18.98    0.57
 -13 -11   6   12.91    0.39
  14   2   6   34.79    1.04
   7  -2   7  382.81   11.48
  17  10  -3   11.81    0.35
  -4   3  -7  142.32    4.27
   2  -2   4 2441.18   73.24
  -1  -5   6   57.55    1.73
   4  -5   9   22.04    0.66
   3   7  -8   10.33    0.31
   1   4  -5   36.57    1.10
   9   7  -4   15.58    0.47
  -4  -8   8   28.29    0.85
  12   9  -5   19.52    0.59
   0  -6   8  201.71    6.05
   4   6  -6   79.19    2.38
  10   6  -2   27.00    0.81
 -11  -6   1   89.18    2.68
  -7  -4   1 1605.98   48.18
 -10  -7   3   24.82    0.74
 -13 -10   5    3.69    0.11
  -1   5  -8   23.67    0.71
  -9  -8   5   15.80    0.47
   3  -3   6   79.15    2.37
   2   7  -9    7.47    0.22
  16  10  -4   43.89    1.32
   2   3  -3  496.81   14.90
 -12  -5  -1  230.53    6.92
  -6  -5   3   61.29    1.84
  -5  -6   5   31.74    0.95
  -8  -9   7    2.81    0.08
  -8   1  -7   26.83    0.80
  -4  -7   7  376.34   11.29
 -12  -1  -7   62.56    1.88
  -3   2  -5   77.98    2.34
   8   7  -5  372.23   11.17
  10   1   5   27.53    0.83
  -5   3  -8   79.80    2.39
  -2   5  -9  101.45    3.04
  11   9  -6   19.86    0.60
 -14  -4  -4   16.66    0.50
   5   5  -4  134.76    4.04
  -8  -3  -1  423.41   12.70
 -13  -9   4   55.76    1.67
   6   8  -8   20.21    0.61
   3   6  -7   91.13    2.73
   0   4  -6  103.96    3.12
  18   8   0   17.86    0.54
 -14  -8   2   26.06    0.78
  -2  -3   3  492.56   14.78
  -8  -8   6   36.38    1.09
  12   8  -4   64.37    1.93
   4   1   1 9999.00  299.97
   7   7  -6  923.09   27.69
   6   4  -2 2082.47   62.47
  -7  -9   8   14.98    0.45
   9   6  -3   13.01    0.39
   3   2  -1 1517.10   45.51
 -10  -6   2   46.67    1.40
 -12  -9   5    9.80    0.29
   5   8  -9   15.52    0.47
  10   5  -1   17.10    0.51
  -3  -2   1 1845.53   55.37
  -4  -6   6   95.75    2.87
  -3  -7   8   16.01    0.48
   2   6  -8  239.89    7.20
  14   6   0   77.69    2.33
  -5  -5   4   62.64    1.88
   4   5  -5   97.94    2.94
  -6  -4   2 1430.53   42.92
  11   8  -5   10.59    0.32
   1   3  -4  846.63   25.40
  15   9  -4   78.18    2.34
 -16  -6  -2   31.45    0.94
  -8  -7   5  355.41   10.66
   7  -1   6   58.91    1.77
  -7  -8   7   14.36    0.43
   4  -3   7  154.01    4.62
  -9   1  -8   13.13    0.39
   8   6  -4   53.25    1.60
  -9  -6   3   37.04    1.11
   8  -2   8   10.43    0.31
   5  -4   9   27.67    0.83
   6   7  -7   55.94    1.68
  -4   2  -6  399.36   11.98
 -11  -5   0   45.45    1.36
  18   7   1   22.32    0.67
 -16 -10   4   20.20    0.61
   1   6  -9    9.30    0.28
   1  -5   8   29.19    0.88
   3   5  -6  148.25    4.45
  10   8  -6   26.74    0.80
 -19  -8  -1   27.72    0.83
 -14  -7   1   28.28    0.85
 -12  -8   4  681.78   20.45
   3  -2   5   37.32    1.12
 -11  -9   6   30.59    0.92
   0  -4   6  139.47    4.18
  -2  -7   9   19.18    0.57
  -2   4  -8  106.62    3.20
  -2   1  -3  180.03    5.40
  12   7  -3   33.20    1.00
  -3  -6   7  190.88    5.73
  -7   0  -5   73.37    2.20
  16   8  -2   16.82    0.50
 -17  -9   2   27.07    0.81
   6   0   4    7.64    0.23
  -7  -7   6 1134.20   34.03
 -18  -5  -5   13.87    0.42
  -6  -8   8   13.17    0.39
   0   3  -5 1432.18   42.97
   7   6  -5  503.12   15.09
   5   4  -3  179.05    5.37
  -1  -3   4  985.67   29.57
 -15 -10   5   18.87    0.57
  -4  -5   5  111.66    3.35
  -5   2  -7  210.98    6.33
   7   3   0   34.86    1.05
 -10  -9   7   14.50    0.43
  -3   4  -9   20.20    0.61
   4   7  -9   19.65    0.59
   2   5  -7   45.58    1.37
   2  -5   9   59.53    1.79
 -13  -1  -8   13.74    0.41
  11   7  -4   63.16    1.89
  11   4   1   84.68    2.54
  -2  -6   8  204.43    6.13
 -12  -4  -2  155.57    4.67
  -8  -6   4   50.66    1.52
   5  -3   8   60.36    1.81
   8   8  -8   29.21    0.88
  15   8  -3   18.88    0.57
 -15  -6  -1   15.59    0.47
   9   5  -2   35.34    1.06
 -18  -8   0    0.66    0.02
  -5  -4   3  121.48    3.64
   2  -1   3  146.91    4.41
 -11  -8   5   12.08    0.36
 -14 -10   6   12.47    0.37
  -5  -8   9   13.05    0.39
  -6   2  -8  189.77    5.69
   6   6  -6  157.44    4.72
  19   9  -2   13.16    0.39
   1  -4   7   22.03    0.66
   1   5  -8   31.55    0.95
   4   4  -4  791.20   23.74
  13   6  -1   25.21    0.76
  17   7   0   17.24    0.52
  -3  -5   6  322.29    9.67
   4  -2   6  357.08   10.71
  -6  -7   7   45.03    1.35
  -8   0  -6  410.33   12.31
  10   7  -5  770.38   23.11
   2   2  -2  262.47    7.87
   8  -1   7   35.38    1.06
  -1   3  -6   43.91    1.32
 -15  -9   4   72.12    2.16
  -7  -6   5  577.24   17.32
  -3   1  -4 1756.28   52.69
  14   8  -4   32.65    0.98
  -7  -3   0   18.29    0.55
 -17  -8   1   51.84    1.55
 -12  -7   3   52.42    1.57
   0  -3   5 1477.73   44.33
 -10  -8   6   26.22    0.79
   0   5  -9    7.46    0.22
   8   5  -3  414.60   12.44
  18   9  -3   10.62    0.32
   5   6  -7   47.34    1.42
  -2  -2   2  290.58    8.72
  12   6  -2   52.84    1.58
  -4  -1  -1 8895.39  266.86
  14   5   1   17.28    0.52
   8   2   2  347.96   10.44
  -9  -5   2   43.83    1.31
   9   7  -6   46.35    1.39
  -9  -2  -3 2316.95   69.51
  10   4   0  261.53    7.85
 -16  -5  -3  211.47    6.34
  17   9  -4    9.66    0.29
   6   3  -1  403.46   12.10
 -11  -7   4   84.74    2.54
  -4  -4   4 1120.39   33.61
   4   6  -8  106.25    3.19
   3   4  -5  128.30    3.85
  13   8  -5   34.58    1.04
  12   3   3   99.20    2.98
  -9  -8   7    6.94    0.21
  -1   5 -10    3.55    0.11
  -2   3  -7  126.65    3.80
   8   7  -7    9.26    0.28
 -11  -4  -1   74.75    2.24
 -13  -6   1   29.82    0.89
  19   8  -1   27.20    0.82
  -6  -6   6  236.66    7.10
  -2  -5   7   54.08    1.62
   2  -4   8   50.53    1.52
   7   5  -4   84.43    2.53
 -18  -7  -1   14.06    0.42
  16   9  -5    6.05    0.18
  11   6  -3   34.52    1.04
 -15  -8   3   38.58    1.16
  -8  -5   3  311.41    9.34
   2   4  -6  193.65    5.81
  -6  -3   1  686.58   20.60
 -10  -7   5  639.51   19.19
  -8  -8   8   31.17    0.93
  -3   3  -8   79.14    2.37
   7   7  -8   19.24    0.58
  12   0   8    6.45    0.19
  -9   0  -7  118.76    3.56
   1   2  -3  191.81    5.75
 -12  -6   2   55.27    1.66
   3  -1   4  767.88   23.04
  -3  -4   5  109.29    3.28
   1  -3   6   53.11    1.59
   5  -2   7   35.32    1.06
  -1  -5   8   16.47    0.49
   6   5  -5   44.47    1.33
  14   7  -3   62.12    1.86
  17   6   1   15.10    0.45
 -14  -8   4   14.58    0.44
  -5  -6   7   21.44    0.64
   3  -4   9   15.21    0.46
  10   6  -4   94.58    2.84
 -17  -7   0   18.56    0.56
   9   4  -1  665.71   19.97
  -7  -5   4   87.04    2.61
   7   0   5  568.45   17.05
  -9  -7   6   23.16    0.69
 -10   0  -8   30.93    0.93
   5   3  -2   85.84    2.57
 -10  -4   0  281.38    8.44
  13   5   0   37.24    1.12
   0   4  -8   10.30    0.31
   5   5  -6   21.95    0.66
   9   6  -5  329.73    9.89
 -18  -9   3    7.91    0.24
  -1  -2   3  112.68    3.38
 -13  -8   5   51.24    1.54
   0   2  -4 2868.97   86.07
  13   7  -4  148.65    4.46
  17   8  -3   40.53    1.22
  -4  -6   8  138.00    4.14
   0  -5   9   12.74    0.38
   4   5  -7  186.58    5.60
  -5   1  -6  807.63   24.23
 -15  -5  -2   58.57    1.76
  -2  -4   6  271.17    8.14
  -8  -7   7    1.14    0.03
  11   1   6   12.82    0.38
   2  -3   7  151.64    4.55
  -1   4  -9   38.35    1.15
 -16  -7   1   20.77    0.62
 -11  -6   3   16.24    0.49
   6  -2   8  134.42    4.03
  -2   4 -10   14.53    0.44
   8   6  -6  247.79    7.43
   4   3  -3  588.31   17.65
   3   5  -8   45.81    1.37
  12   7  -5   13.94    0.42
  16   8  -4   12.63    0.38
  16   6   0   80.76    2.42
  -6  -5   5   38.96    1.17
   8   4  -2  785.04   23.55
  12   5  -1  261.77    7.85
   2   5  -9   56.00    1.68
  -6   1  -7   16.51    0.49
   7   6  -7   69.84    2.09
  -1   2  -5  462.84   13.88
 -15  -7   2   32.58    0.98
  -5  -3   2   35.99    1.08
   4  -1   5 1102.09   33.06
  -7  -7   8   18.07    0.54
  -3  -6   9   13.20    0.40
  11   7  -6   14.20    0.43
  -9  -4   1  960.08   28.80
 -10  -6   4   98.38    2.95
   0  -2   4 1580.81   47.42
  -7   1  -8   63.89    1.92
   6   6  -8   20.71    0.62
  -2   2  -6  210.75    6.32
  -4  -3   3 1003.69   30.11
  -5  -5   6  101.89    3.06
  -1  -4   7   37.47    1.12
   3  -3   8   94.72    2.84
   3   3  -4  202.22    6.07
   8   0   6  173.06    5.19
  -6  -7   9   21.38    0.64
 -14  -7   3   40.27    1.21
  -9  -6   5  251.97    7.56
  10   7  -7    8.55    0.26
  -8  -2  -2  224.06    6.72
  11   5  -2   81.42    2.44
   9   7  -8   16.60    0.50
  13   8  -7    4.40    0.13
   7   4  -3  235.70    7.07
 -13  -5   0   64.89    1.95
  -8  -4   2  866.81   26.00
  11   3   2  497.13   14.91
 -13  -7   4   48.77    1.46
  14   6  -2   15.38    0.46
 -14  -3  -5   62.41    1.87
  10   5  -3   61.16    1.83
  17   7  -2   12.05    0.36
 -12  -5   1   61.50    1.84
 -17  -8   3   30.78    0.92
  -8  -6   6   79.54    2.39
  -4  -5   7  125.13    3.75
   2   3  -5  107.83    3.23
   6   4  -4   61.88    1.86
 -16  -8   4    4.28    0.13
  -3   2  -7  116.47    3.49
 -17  -6  -1   50.39    1.51
  16   7  -3   73.47    2.20
  20   8  -2    0.87    0.03
  -3  -3   4  235.41    7.06
   1   3  -6   29.57    0.89
  19   8  -3    4.84    0.14
  -7  -4   3   92.66    2.78
   1  -2   5  641.61   19.25
  -7  -6   7  183.64    5.51
   4  -3   9   10.70    0.32
  -4   2  -8   53.87    1.62
   5   4  -5   91.26    2.74
   9   5  -4   26.55    0.80
  12   6  -4   88.07    2.64
 -16  -6   0   90.11    2.70
 -11  -7   6   32.95    0.99
  -3  -5   8   74.61    2.24
  -5   2  -9   28.65    0.86
 -13  -3  -4   31.41    0.94
  15   7  -4  139.08    4.17
 -11  -5   2   95.58    2.87
   0   3  -7   41.70    1.25
   8   5  -5   48.70    1.46
   1  -4   9   12.59    0.38
  -1   3  -8  145.08    4.35
   4   4  -6   49.53    1.49
  11   6  -5  759.95   22.80
   5  -1   6   24.61    0.74
 -10  -7   7   17.22    0.52
  -6  -6   8   31.20    0.94
  -2   3  -9  113.14    3.39
   3   4  -7  381.20   11.44
   7   5  -6  665.05   19.95
  14   7  -5   50.40    1.51
  17   8  -5   18.47    0.55
  20   6   2    8.69    0.26
  -6  -4   4   62.46    1.87
  -2  -3   5  120.17    3.60
  -2  -5   9   27.36    0.82
  -3   3 -10   24.04    0.72
 -15  -6   1   39.76    1.19
   2  -2   6  278.46    8.35
   1   4  -9    6.33    0.19
   2   4  -8  137.84    4.14
   6   5  -7   31.54    0.95
  10   6  -6   17.89    0.54
  13   7  -6    9.85    0.30
 -10  -5   3   51.10    1.53
  12   1   7   28.46    0.85
   5   5  -8   24.25    0.73
   9   6  -7   14.11    0.42
  -9  -7   8    9.49    0.28
   9   0   7   89.16    2.67
   0   4 -10   10.50    0.31
 -20  -7  -1   45.18    1.36
 -14  -6   2   32.57    0.98
  -9  -5   4   63.45    1.90
  -5  -4   5   98.00    2.94
  -1  -3   6   50.56    1.52
 -19  -7   0   12.53    0.38
   6  -1   7    1.60    0.05
   3  -2   7  141.60    4.25
  13   4   1   19.31    0.58
  -8  -5   5   50.12    1.50
  -4  -4   6   39.53    1.19
 -12  -6   4   76.49    2.29
 -13  -2  -7   15.69    0.47
  19   6   1   17.11    0.51
   0  -3   7   61.13    1.83
 -12  -2  -6   57.53    1.73
  -7  -5   6  694.03   20.82
  -3  -4   7  184.47    5.53
   4  -2   8   53.87    1.62
   7  -1   8   54.19    1.63
 -11  -6   5  272.61    8.18
   1  -3   8   84.28    2.53
   6   2   0 2241.30   67.24
 -16  -7   3    9.76    0.29
  -6  -5   7   27.37    0.82
 -11  -2  -5   32.33    0.97
  -6  -1  -3  606.05   18.18
  -2  -4   8   14.91    0.45
 -11  -3  -2  238.94    7.17
  -7  -2  -1  325.32    9.76
  16   6  -2   20.07    0.60
  11   4  -1   53.77    1.61
  14   5  -1   15.82    0.47
  16   3   5   12.08    0.36
 -10  -3  -1  774.49   23.23
   8   3  -1  289.15    8.67
 -10  -6   6   19.82    0.59
  15   6  -3   21.80    0.65
  13   5  -2   34.44    1.03
   5   2  -1 2942.54   88.28
  -6  -2   0 1671.57   50.15
 -16  -4  -4   28.21    0.85
  14   6  -4   12.63    0.38
   9   4  -3  444.84   13.34
  12   5  -3  153.96    4.62
  10   4  -2   21.54    0.65
  14   7  -7   12.65    0.38
   7   3  -2  232.11    6.96
  12   6  -6    9.73    0.29
  13   6  -5   15.58    0.47
 -12  -3  -3   68.77    2.06
   2   1  -1 1155.26   34.66
  10   6  -8   65.86    1.98
  11   6  -7   20.93    0.63
 -15  -4  -3   47.28    1.42
   8   4  -4  189.06    5.67
 -14  -4  -2  110.31    3.31
   4   2  -2 1552.97   46.59
  -4  -5   9   13.73    0.41
   8   5  -7   31.29    0.94
 -17  -4  -5   24.51    0.73
   9   5  -6   33.01    0.99
  10   5  -5   25.47    0.76
   6   3  -3  274.26    8.23
  -5  -2   1 2635.30   79.06
   2  -3   9   22.11    0.66
   5  -2   9   13.69    0.41
   6   5  -9   19.68    0.59
   7   5  -8   26.53    0.80
   6   4  -6   60.01    1.80
   4   3  -5  432.01   12.96
   7   4  -5   19.08    0.57
  -9  -3   0  152.41    4.57
  -2  -1   1 1005.87   30.18
   0   3  -9   10.67    0.32
   3   4  -9    3.53    0.11
   4   4  -8   15.90    0.48
   5   4  -7   75.43    2.26
   3   3  -6   51.19    1.54
   2   2  -4 1067.63   32.03
   5   3  -4  291.94    8.76
 -13  -4  -1   92.25    2.77
 -12  -4   0   69.01    2.07
  -8  -3   1  203.88    6.12
  -3   2  -9   50.27    1.51
 -11  -1  -8   22.66    0.68
  -8   0  -8   29.66    0.89
  -2   2  -8   97.41    2.92
   1   3  -8   44.63    1.34
 -10  -1  -7  216.86    6.51
   2   3  -7  164.18    4.93
 -18  -5  -3   17.53    0.53
   3   2  -3  646.16   19.39
   1   1  -2 2205.65   66.17
  -3  -1   0   42.45    1.27
  -6   1  -9   18.46    0.55
  -5   1  -8   30.99    0.93
  -4   1  -7  136.99    4.11
   0   2  -6   63.94    1.92
   1   2  -5  517.77   15.53
 -11  -4   1   87.10    2.61
  -4  -2   2 1981.19   59.44
  -7   0  -7   55.12    1.65
  -1   2  -7   28.33    0.85
  -3   1  -6   81.97    2.46
  -2   1  -5  369.32   11.08
   0   1  -3  548.93   16.47
 -16  -5  -1   16.08    0.48
  -7  -3   2  501.98   15.06
  -1  -1   2 2906.16   87.19
  -9  -1  -6   82.75    2.48
  -6   0  -6  220.20    6.61
  -4   0  -4  457.20   13.72
 -17  -5  -2   27.91    0.84
 -15  -5   0   43.56    1.31
  -8  -1  -5  269.35    8.08
  -5   0  -5   34.65    1.04
  -7  -1  -4  225.73    6.77
  -1   1  -4   53.48    1.60
  -3   0  -3  162.66    4.88
 -14  -5   1   47.63    1.43
 -13  -5   2   52.58    1.58
  -9  -4   3  431.83   12.95
  -6  -3   3  376.28   11.29
 -19  -5  -4   11.06    0.33
 -18  -6   0    2.36    0.07
 -17  -6   1   66.89    2.01
 -16  -6   2   39.68    1.19
 -10  -4   2   42.21    1.27
 -12  -5   3  104.11    3.12
 -20  -6  -2   11.41    0.34
 -19  -6  -1   15.85    0.47
  -2   0  -2 1696.12   50.88
  -3  -2   3  475.85   14.28
  -8  -4   4  199.65    5.99
  -5  -3   4  417.45   12.52
  -2  -2   4 1016.51   30.50
  -1   0  -1 1456.20   43.69
 -15  -6   3    4.79    0.14
 -11  -5   4   33.21    1.00
 -19  -7   2    4.99    0.15
 -14  -6   4    9.07    0.27
 -10  -5   5   18.04    0.54
  -7  -4   5    6.90    0.21
  -4  -3   5  236.02    7.08
   1   0   1 1492.42   44.77
   0  -1   3  651.20   19.54
  -9  -5   6   49.03    1.47
  -6  -4   6  113.24    3.40
   2   0   2 1668.76   50.06
  -1  -2   5  473.37   14.20
 -12  -6   6   15.53    0.47
  -8  -5   7   47.93    1.44
  -5  -4   7   71.21    2.14
  -3  -3   6   96.22    2.89
   1  -1   4   79.37    2.38
  -2  -3   7  175.66    5.27
 -10  -6   8   50.01    1.50
  -7  -5   8    8.26    0.25
  12   6  -8    2.74    0.08
   2  -1   5  532.87   15.99
  -4  -4   8   19.79    0.59
  -6  -5   9    3.35    0.10
  -1  -3   8   53.67    1.61
  19   6  -1   15.14    0.45
   1  -2   7   85.66    2.57
   4   0   4  696.51   20.90
   3  -1   6   50.30    1.51
   2  -2   8  181.73    5.45
  -2  -4  10    8.75    0.26
   3   0   3  319.87    9.60
   3  -2   9   36.98    1.11
  10   5  -7    9.78    0.29
  11   5  -6   17.77    0.53
  12   5  -5   51.90    1.56
  13   5  -4   59.26    1.78
  14   5  -3  117.95    3.54
  14   4   0  128.37    3.85
   6   4  -8   49.61    1.49
   7   4  -7  166.84    5.01
   0  -3   9    6.00    0.18
   8   4  -6   54.38    1.63
  15   4   1   47.30    1.42
   2   3  -9   42.00    1.26
   9   4  -5   49.06    1.47
  10   4  -4  145.45    4.36
  11   4  -3   58.19    1.75
   3   3  -8   74.33    2.23
  12   4  -2  138.54    4.16
   4  -1   7   26.07    0.78
  -1   2  -9   90.45    2.71
   4   3  -7   77.33    2.32
  13   4  -1   21.40    0.64
   5   3  -6  118.82    3.56
  17   3   6   10.47    0.31
   0   2  -8    0.71    0.02
 -14  -6   6   17.54    0.53
   1   2  -7   51.43    1.54
  16   6  -6    5.53    0.17
   6   3  -5   89.49    2.68
  17   6  -5   19.50    0.58
 -16  -6   4   25.74    0.77
   6   0   6   66.27    1.99
 -12  -6   8    0.76    0.02
   7   3  -4   11.09    0.33
  18   6  -4    7.71    0.23
 -13  -5   4   59.44    1.78
 -15  -6   5    9.11    0.27
 -12  -5   5   24.23    0.73
 -10  -5   7   28.34    0.85
  11   5  -8   18.79    0.56
   2   2  -6  265.21    7.96
   9   3  -2 1290.45   38.71
 -18  -6   2   17.18    0.51
 -14  -5   3  115.59    3.47
  -9  -5   8    6.25    0.19
   7   0   7   61.10    1.83
  -3   1  -8   67.62    2.03
   8   3  -3  138.29    4.15
 -19  -6   1   20.29    0.61
  -9  -4   5   45.63    1.37
  -8  -4   6   34.13    1.02
  -7   0  -9   14.92    0.45
  10   3  -1  607.56   18.23
 -15  -5   2   42.54    1.28
 -10  -4   4  153.79    4.61
  -7  -4   7   80.49    2.41
  -6  -4   8   31.17    0.93
 -20  -6   0   17.82    0.53
 -11  -4   3   44.25    1.33
   3   2  -5   45.99    1.38
  14   5  -5   61.93    1.86
 -16  -5   1   33.55    1.01
   3   3 -10   15.64    0.47
   8   4  -8   20.23    0.61
  -2   1  -7   27.63    0.83
 -12  -4   2  126.23    3.79
  -5  -3   6  108.88    3.27
  -4  -3   7   81.69    2.45
 -10  -1  -9   13.86    0.42
  -6   0  -8   75.34    2.26
   9   4  -7   74.50    2.23
   4   2  -4  221.16    6.63
  15   5  -4   11.63    0.35
  -6  -3   5   76.21    2.29
  -3  -3   8   87.25    2.62
  -2  -3   9   57.88    1.74
  16   5  -3  134.63    4.04
  -1  -3  10    5.94    0.18
  -1   1  -6  231.36    6.94
 -17  -5   0    2.01    0.06
  10   4  -6   17.54    0.53
  17   5  -2   30.26    0.91
 -13  -4   1   19.43    0.58
  -8  -3   3  184.37    5.53
  10   1   7   99.76    2.99
   5   3  -8   23.71    0.71
   5   2  -3  186.86    5.61
   9   1   6  101.48    3.04
  11   4  -5  179.62    5.39
  -9  -3   2  738.56   22.16
  12   3   1   32.50    0.97
   8   1   5   45.32    1.36
  -2  -2   6  304.75    9.14
  -1  -2   7   26.59    0.80
   0  -2   8   14.21    0.43
   1  -2   9   64.52    1.94
   1   2  -9  142.17    4.26
  -3  -2   5   45.71    1.37
   6   3  -7   60.75    1.82
   6   1   3 1140.36   34.21
  -4  -2   4  242.65    7.28
  11   1   8    8.86    0.27
  -9  -1  -8    5.31    0.16
   7   1   4   42.06    1.26
   2   2  -8  160.61    4.82
  12   4  -4   28.56    0.86
   6   2  -2  499.70   14.99
 -11  -5   8   19.52    0.59
   7   3  -6  576.91   17.31
  -5  -2   3  195.22    5.86
 -16  -4  -2  107.55    3.23
 -10  -3   1  353.31   10.60
  14   5  -7    4.62    0.14
  13   4  -3   31.87    0.96
 -14  -5   5   73.14    2.19
  15   5  -6   14.73    0.44
   0   1  -5   16.39    0.49
  14   4  -2   83.64    2.51
   7   2  -1  307.51    9.23
   8   3  -5   20.16    0.60
  15   4  -1   78.00    2.34
  16   4   0   94.98    2.85
 -16  -5   3  128.08    3.84
  17   5  -4   37.86    1.14
  -6  -2   2  555.23   16.66
  -9  -4   7  100.77    3.02
  -8  -4   8   18.34    0.55
   3   2  -7  123.41    3.70
  -4   0  -6   71.44    2.14
   1   1  -4   50.57    1.52
 -11  -3   0   17.63    0.53
 -10  -4   6   20.72    0.62
   1  -1   6  188.57    5.66
   2  -1   7   38.24    1.15
   3  -1   8   94.21    2.83
  -2   1  -9   42.67    1.28
  11   4  -7    5.98    0.18
 -11  -4   5  224.67    6.74
   6   3  -9    1.10    0.03
  18   5  -3   13.23    0.40
  17   4   1   10.44    0.31
   4   2  -6   87.39    2.62
  -7  -2   1  188.97    5.67
 -17  -5   2   12.19    0.37
 -12  -4   4   73.82    2.21
  -5  -3   8   19.87    0.60
  -4  -3   9   18.28    0.55
 -12  -3  -1   47.10    1.41
   8   2   0  397.93   11.94
  -6  -3   7   78.08    2.34
  -1   1  -8   24.59    0.74
   7   3  -8   12.21    0.37
  -8  -1  -7   32.23    0.97
  10   3  -3  385.00   11.55
  -7  -3   6  486.82   14.60
  -3   0  -5 1282.50   38.47
  13   4  -5   25.14    0.75
   2   1  -3   79.18    2.38
  -5   0  -9  126.63    3.80
 -12  -2  -8   45.28    1.36
  11   3  -2  356.74   10.70
 -13  -4   3   26.12    0.78
  18   4   2   10.20    0.31
  -1  -1   4   28.89    0.87
  -8  -3   5   27.70    0.83
   3   2  -9  130.14    3.90
   0   1  -7   37.18    1.12
   8   3  -7   48.52    1.46
   5   2  -5   45.48    1.36
 -14  -4   2   59.64    1.79
  -1  -2   9  123.49    3.70
 -17  -4  -3   22.42    0.67
  14   4  -4   55.77    1.67
  19   4   3   12.80    0.38
  -2  -2   8  163.95    4.92
   6   0   8  131.93    3.96
  12   4  -8   21.05    0.63
  -2  -1   3   68.52    2.06
  -3  -2   7   97.06    2.91
  -1   1 -10   18.23    0.55
 -15  -5   6   11.42    0.34
   4   2  -8   89.01    2.67
  -7  -1  -6   95.92    2.88
   9   3  -6   13.90    0.42
  15   4  -3   53.69    1.61
  -4  -2   6  142.01    4.26
 -10  -4   8    5.99    0.18
  -4   0  -8   26.67    0.80
  -2   0  -4 3915.16  117.45
   6   2  -4   76.67    2.30
  -8  -2   0  537.03   16.11
 -10  -3   3  212.91    6.39
   1   1  -6  203.17    6.10
  12   3  -1   12.15    0.36
 -11  -4   7   19.20    0.58
   4   0   6   95.72    2.87
   3   1  -2  106.85    3.21
 -15  -4   1   84.49    2.53
   3   0   5 2263.75   67.91
   2  -1   9  195.84    5.88
  -8  -1  -9   19.56    0.59
   0   1  -9   15.42    0.46
  10   3  -5   14.00    0.42
 -17  -5   4   16.33    0.49
 -12  -4   6   13.84    0.41
   5   2  -7   18.62    0.56
  -5  -2   5   36.99    1.11
   4   2 -10   19.22    0.58
  16   4  -2   30.12    0.90
 -11  -2  -7   38.39    1.15
   7   2  -3  489.82   14.69
 -13  -4   5    4.32    0.13
   1  -1   8   25.12    0.75
  -3   0  -7   92.89    2.79
   2   1  -5  594.16   17.82
  -8  -3   7   32.04    0.96
  -7  -1  -8   46.16    1.38
  11   3  -4  151.48    4.54
  -6  -2   4   60.34    1.81
   9   3  -8   13.73    0.41
   4   1  -1 7367.41  221.02
  10   2   2  389.91   11.70
  15   4  -5   22.85    0.69
  12   3  -3   51.88    1.56
  14   3   1   49.70    1.49
   5   2  -9   86.02    2.58
  10   3  -7    2.45    0.07
   6   2  -6  306.46    9.19
   8   2  -2  598.36   17.95
  -4  -1   1 7913.78  237.41
   1   1  -8   65.98    1.98
  -3  -1   2   63.62    1.91
  -9  -3   6   16.11    0.48
   0  -1   7   50.91    1.53
  11   3  -6  288.36    8.65
 -12  -3   1   25.87    0.78
 -15  -4   3   46.41    1.39
  -7  -2   3  334.58   10.04
 -12  -4   8    8.59    0.26
  -3  -2   9  104.52    3.14
  17   4  -3   23.41    0.70
  -9  -2  -1  315.44    9.46
  -1  -1   6  145.42    4.36
  10   3  -9    4.45    0.13
   2   0   4 2444.53   73.34
  -4  -2   8   98.72    2.96
   1   1 -10   16.78    0.50
   6   2  -8   26.10    0.78
  16   4  -6   34.12    1.02
 -14  -3  -3   52.32    1.57
  -3   0  -9   18.22    0.55
   7   2  -5  130.39    3.91
   3   1  -4  618.38   18.55
  13   3  -2  135.78    4.07
  11   3  -8   81.40    2.44
  -2   0  -6   48.09    1.44
  -1   0  -3 1100.45   33.01
 -16  -4   2   54.42    1.63
 -11  -3   4  115.44    3.46
  -2  -1   5 1542.15   46.26
 -14  -4   6    7.50    0.22
  -5  -2   7   46.45    1.39
  -8  -3   9   10.96    0.33
  -6  -1  -5  134.70    4.04
  12   3  -5   15.60    0.47
  17   4  -5   16.32    0.49
  18   4  -2   46.26    1.39
  -8  -2   2  467.80   14.03
  11   2   3  157.74    4.73
   9   1   8   23.20    0.70
   5   0   9   27.42    0.82
   2   1  -9   79.65    2.39
   7   2  -7  106.82    3.20
 -21  -5   0    5.51    0.16
 -13  -3   0   74.83    2.24
  -6  -2   6  140.23    4.21
   4   0   8   28.62    0.86
  12   3  -7   46.87    1.41
 -15  -4   5   28.70    0.86
   8   1   7   48.94    1.47
   8   2  -4  217.30    6.52
  20   4   2    5.72    0.17
   7   2  -9   15.34    0.46
   3   1  -6   25.79    0.77
  13   3  -4   66.03    1.98
  18   4  -4   22.19    0.67
 -12  -3   3   88.15    2.64
  -3  -1   4  495.96   14.88
  12   2   6   93.58    2.81
 -17  -4   1   14.71    0.44
   1   0   3 1006.52   30.20
  -7  -2   5  334.29   10.03
 -18  -4  -2   36.23    1.09
   3   0   7   24.45    0.73
  -1  -1   8   66.99    2.01
  -5  -2   9   47.94    1.44
   3   1  -8  141.60    4.25
   8   2  -6  252.55    7.58
 -16  -4   4   13.52    0.41
 -11  -3   6  204.89    6.15
   3   1 -10   13.27    0.40
  13   3  -6   95.36    2.86
   4   1  -3  136.73    4.10
   8   2  -8   16.35    0.49
  -1   0  -5   26.24    0.79
   7   1   6   42.15    1.26
  -2  -1   7   17.16    0.51
  -6  -2   8   63.58    1.91
 -10  -2  -6  218.68    6.56
   9   2  -3  173.75    5.21
  19   4  -3    7.79    0.23
 -10  -3   9    7.48    0.22
 -13  -3   2  122.01    3.66
 -12  -3   5   37.98    1.14
  -1   0  -7   58.46    1.75
  14   3  -3   16.93    0.51
 -17  -4   3   38.41    1.15
  -8  -2   4  225.31    6.76
  -7  -2   7  220.28    6.61
  -1   0  -9   12.93    0.39
  14   3  -5   38.07    1.14
  20   4   0   23.80    0.71
  -4  -1   3  144.82    4.34
   2   0   6    8.28    0.25
 -11  -3   8   56.90    1.71
 -10  -2  -8    6.64    0.20
   9   2  -7   21.29    0.64
 -16  -4   6    2.06    0.06
  -1  -1  10   12.29    0.37
  -9  -2   1   16.72    0.50
  10   2   0   81.53    2.45
  -3  -1   6   48.83    1.46
  -2  -1   9   76.42    2.29
 -10  -2  -2  241.79    7.25
   5   1  -2 3770.60  113.12
 -18  -4   4    3.99    0.12
  15   3  -4   10.39    0.31
  10   2  -2  252.37    7.57
  -8  -2   6  202.92    6.09
  15   3  -6    1.51    0.04
  -9  -2   3  157.70    4.73
  10   2  -8   19.58    0.59
  10   2  -6  203.69    6.11
   3   0   9    8.17    0.24
  10   2  -4   57.08    1.71
  -5  -1   2 3772.26  113.17
 -13  -3   6   64.00    1.92
   1   0   5   24.07    0.72
  -5  -1 -10    5.32    0.16
   5   1  -8   24.54    0.74
  16   3  -1   40.73    1.22
  -5  -1  -8   56.86    1.71
   0   0  -8   91.93    2.76
   5   1  -6  320.61    9.62
 -10  -2   0  223.45    6.70
  -5  -1   0  107.19    3.22
  -8  -2   8   23.06    0.69
  -3  -1   8   82.88    2.49
  -5  -1  -6   42.11    1.26
   0   0  -4 2207.67   66.23
  16   3  -5   33.64    1.01
   5   1  -4   35.68    1.07
  16   3  -3   25.67    0.77
 -19  -4   3   24.44    0.73
 -14  -3   3    7.86    0.24
  -9  -2   5   20.29    0.61
  11   2   1   51.80    1.55
   6   1   5  329.20    9.88
   7   1   8   55.32    1.66
  11   2  -7   37.86    1.14
 -15  -3  -4   18.95    0.57
 -14  -3   5   63.50    1.90
   6   1  -9   29.39    0.88
 -10  -2   2  176.82    5.30
  11   2  -5   18.20    0.55
 -15  -3  -2   68.75    2.06
  11   2  -3  178.57    5.36
  -9  -2   7   14.87    0.45
  -4  -1   7    5.25    0.16
   1   0   7   44.50    1.33
  -3  -1  10    3.14    0.09
  -5  -1  -4   29.79    0.89
  11   2  -1   42.39    1.27
 -10  -2   4   51.15    1.53
   0   0   4 3588.40  107.65
 -14  -3   7   11.68    0.35
  12   2  -8   20.47    0.61
 -15  -3   0   11.20    0.34
  17   3  -2   55.08    1.65
 -15  -3   2   37.14    1.11
   6   1  -5  194.85    5.85
  17   3  -4    4.72    0.14
   1   0  -7   62.50    1.87
  12   2  -6   41.90    1.26
 -20  -4   0   44.62    1.34
 -15  -3   4   32.24    0.97
 -10  -2   6  186.13    5.58
  -4  -1   9    1.23    0.04
  -5  -1   6  167.01    5.01
   1   0   9    9.54    0.29
  -3  -1 -10    0.81    0.02
   7   1  -8   52.99    1.59
   6   1  -1 2534.20   76.03
   6   1   7   15.95    0.48
   1   0  -5   30.33    0.91
 -20  -4  -2   16.44    0.49
   6   1  -3  355.24   10.66
 -10  -2   8   20.00    0.60
  -4  -1  -7   12.47    0.37
  12   2  -4   39.21    1.18
  18   3  -3   30.97    0.93
  -5  -1   8   19.69    0.59
  -9  -2  -7   37.08    1.11
   7   1  -6   23.57    0.71
   2   0  -8    4.15    0.12
 -11  -2   3  134.71    4.04
   0   0   8   40.45    1.21
 -14  -3  -7   13.57    0.41
  12   2  -2   26.69    0.80
  18   3  -1   30.03    0.90
  -5  -1  10   20.11    0.60
  -8  -2  -8   15.50    0.46
  -3  -1  -8   95.30    2.86
  13   2  -5    8.77    0.26
  19   3  -4   12.08    0.36
 -16  -3   1   38.56    1.16
 -11  -2   1  103.63    3.11
 -16  -3   3   16.51    0.49
 -16  -3   5   47.84    1.43
 -11  -2   5    0.25    0.01
  -6  -1   5  144.86    4.35
 -11  -2   7   28.35    0.85
   3   0  -9    3.88    0.12
   8   1  -7   42.32    1.27
  -6  -1   3  612.20   18.37
  -4  -1  -5   92.54    2.78
   1   0  -3  559.33   16.78
  11   2   5   23.35    0.70
  11   2   7   43.40    1.30
  -2  -1  -9   85.37    2.56
   2   0  -6   18.77    0.56
  14   2  -6   31.54    0.95
   7   1  -4   60.43    1.81
  -6  -1   1 3274.23   98.23
  12   2   0   79.52    2.39
   5   1   4  114.28    3.43
   5   1   6   12.83    0.38
   5   1   8   34.60    1.04
  13   2  -3   46.52    1.40
  -1   0   7   31.85    0.96
 -12  -2   6   20.88    0.63
 -12  -2   8   10.28    0.31
  -6  -1   7   42.28    1.27
 -12  -2   4    2.12    0.06
   8   1  -5   38.79    1.16
  14   2  -4   18.63    0.56
   7   1  -2  494.83   14.84
   3   0  -7   42.97    1.29
  13   2  -1   40.46    1.21
  12   2   2   22.11    0.66
  -7  -1   8   47.74    1.43
  -1  -1 -10   17.32    0.52
   9   1  -6   92.43    2.77
  15   2  -5   32.51    0.97
  -6  -1  -1 1601.46   48.04
  -7  -1   6   30.87    0.93
   4   0  -8   29.30    0.88
  10   1  -7  256.76    7.70
 -12  -2   2   45.27    1.36
  -3  -1  -6  160.81    4.82
   2   0  -4 2032.31   60.97
  -1   0   3  885.92   26.58
   5   0  -9   37.05    1.11
 -16  -3  -3   26.32    0.79
   8   1  -3  823.83   24.71
  -7  -1   4   31.16    0.93
 -13  -2   5   13.68    0.41
  -7  -2  -9   26.37    0.79
  14   2  -2   50.29    1.51
 -12  -2   0   93.90    2.82
  -7  -1   2  422.15   12.66
  19   3   4    6.86    0.21
  -2   0   8    2.51    0.07
   3   0  -5  925.92   27.78
  -8  -1   7   42.31    1.27
  -2  -1  -7   32.78    0.98
 -13  -2   3   39.48    1.18
 -13  -3  -8   13.24    0.40
  15   2  -3   16.51    0.49
 -18  -3   1   19.33    0.58
  13   2   1   43.48    1.30
  20   3   1    6.14    0.18
  -2   0   4 2615.17   78.45
  -1  -1  -8   24.93    0.75
   9   1  -4  180.01    5.40
 -19  -3   4   21.75    0.65
  -8  -1   5   37.61    1.13
 -14  -2   6   20.33    0.61
  17   2  -5   10.33    0.31
   0  -1  -9    5.95    0.18
   6   0  -8   75.36    2.26
   4   0  -6   39.31    1.18
  10   1  -5   17.41    0.52
   4   1   5  111.48    3.34
   1  -1 -10   10.82    0.32
   7   0  -9   19.98    0.60
  12   1  -7   48.87    1.47
  11   1  -6   14.59    0.44
 -17  -3  -2   51.95    1.56
 -13  -2   1  217.43    6.52
  -8  -1   3  708.47   21.25
 -14  -2   4   49.72    1.49
  -3   0   7   67.84    2.03
 -10  -1   9    6.77    0.20
  -8  -2  -6  360.09   10.80
 -19  -3   2   13.07    0.39
  -9  -1   6  103.28    3.10
   3   1   8  100.06    3.00
  -9  -2  -5   32.49    0.97
  -3   0   5 1495.94   44.88
  15   2  -1   28.66    0.86
 -15  -2   5   26.82    0.80
 -10  -1   7  326.07    9.78
  -4   0   8   45.15    1.35
   2   1   9   40.01    1.20
  18   2  -4   22.12    0.66
 -20  -3   3   15.64    0.47
  10   2   6  166.38    4.99
  -5  -2  -9  144.68    4.34
  -6  -2  -8   82.56    2.48
  -7  -2  -7  190.57    5.72
 -18  -3  -1   21.70    0.65
  17   2  -3   12.92    0.39
  -9  -1   4   28.95    0.87
   3   1   6   25.69    0.77
  -4  -2 -10   10.34    0.31
 -16  -2   6   10.93    0.33
   3  -1 -10   11.19    0.34
   2  -1  -9  137.76    4.13
  14   1  -7   23.69    0.71
  10   1  -3  240.86    7.23
   8   1  -1  143.18    4.30
  -1   0   1 1683.96   50.52
  13   1  -6    5.08    0.15
  11   1  -4   76.44    2.29
   9   1  -2  172.63    5.18
  -4   0   6   53.82    1.61
   1  -1  -8   12.89    0.39
   0  -1  -7   31.21    0.94
   7   0  -7   61.81    1.85
  -1  -1  -6  216.76    6.50
  -2  -1  -5  519.71   15.59
   5   0  -5   84.23    2.53
  -3  -1  -4  788.40   23.65
   4   0  -4  391.91   11.76
  -4  -1  -3  145.02    4.35
   1   0  -1 1688.42   50.65
 -15  -2   3   23.29    0.70
   6   0  -6   60.29    1.81
   2   1   7   24.03    0.72
   9   2   7   26.60    0.80
   3   0  -3  265.29    7.96
   2   0  -2  954.78   28.64
  -7  -1   0   33.46    1.00
 -15  -2   1   81.70    2.45
 -12  -1   7    4.01    0.12
  17   2  -1    7.09    0.21
  16   2   0   10.44    0.31
  13   2   3   67.50    2.02
  15   2   1    3.47    0.10
 -11  -2  -3  178.80    5.36
  -8  -1   1  148.74    4.46
  -9  -1   2  185.80    5.57
  -2   0   2 1405.47   42.16
  -6   0   8   74.61    2.24
 -12  -2  -2   76.51    2.30
  10   0  -8   22.84    0.68
 -13  -2  -1   86.43    2.59
 -14  -2   0   42.12    1.26
 -10  -1   3  210.05    6.30
  -4   0   4  455.17   13.65
 -11  -1   4   51.34    1.54
   0   1   9   14.37    0.43
  -1   1  10   15.44    0.46
  -2  -2 -10    7.77    0.23
   4  -1  -9   14.08    0.42
   9   0  -7   78.73    2.36
  13   1  -4   30.14    0.90
  -3   0   3  136.96    4.11
  12   2   4   12.97    0.39
  -3  -2  -9   98.59    2.96
   3  -1  -8   48.81    1.46
   8   0  -6  131.31    3.94
  11   1  -2  487.73   14.63
 -16  -2   2   25.14    0.75
 -18  -3  -3   22.97    0.69
  12   1  -3    6.23    0.19
   8   2   8   19.64    0.59
 -13  -1   6   18.86    0.57
  -6   0   6   40.19    1.21
  -4  -2  -8  139.43    4.18
  12   0  -8   13.59    0.41
   7   0  -5   42.70    1.28
  16   1  -5   12.90    0.39
   2   1   5  322.32    9.67
 -14  -1   7   26.27    0.79
  -7   0   7   13.96    0.42
   2  -1  -7   35.02    1.05
   3   1   4 1280.96   38.43
   1   1   6  125.39    3.76
   1  -1  -6   84.16    2.52
  19   2  -1   18.41    0.55
   6   0  -4   69.46    2.08
  10   1  -1   52.28    1.57
  -1   1   8   15.12    0.45
  -2   1   9  169.89    5.10
 -11  -3  -8   13.62    0.41
  18   2   0   26.00    0.78
   4   1   3  241.69    7.25
  -1  -2  -9  135.06    4.05
   5  -1  -8    8.40    0.25
  -5  -2  -7   15.59    0.47
  14   1  -3   36.88    1.11
 -11  -1   2  299.90    9.00
 -13  -1   4   19.66    0.59
 -15  -1   6   28.74    0.86
  -9   0   7   63.57    1.91
 -20  -2   4   12.47    0.37
 -14  -1   5   16.64    0.50
  -8   0   6  125.22    3.76
 -10   0   8   21.06    0.63
  -6  -2  -6  215.74    6.47
  13   0  -7    1.99    0.06
 -17  -3  -4   24.95    0.75
   5   0  -3   20.27    0.61
  13   1  -2   52.76    1.58
 -17  -2   1   49.93    1.50
 -18  -2   2   11.39    0.34
 -12  -1   3   18.43    0.55
  17   2   1   31.81    0.95
  -7   0   5   60.21    1.81
   4  -1  -7    8.22    0.25
   9   0  -5   57.06    1.71
   7   2   7  242.81    7.28
   6   2   8   94.35    2.83
 -12  -3  -7   36.22    1.09
 -16  -2   0  128.55    3.86
  -6   0   4   35.07    1.05
   8   2   6  254.18    7.63
  -3   1   8   41.39    1.24
   2  -2 -10   21.21    0.64
  -2  -2  -8   96.19    2.89
  -8  -3  -9    9.15    0.27
   7  -1  -8   46.15    1.38
  12   0  -6   10.87    0.33
  -2   1   7   38.65    1.16
   1  -2  -9   97.58    2.93
  -1   1   6  118.05    3.54
   3  -1  -6   31.53    0.95
   8   0  -4   11.55    0.35
 -10  -1   1   16.71    0.50
 -16  -1   5    7.80    0.23
  12   1  -1   38.09    1.14
  14   2   4   48.53    1.46
   5   2   9   18.30    0.55
   7   0  -3 4834.40  145.03
  14   0  -6   21.08    0.63
   4   0  -2   43.72    1.31
   3   2   9   85.66    2.57
  -1  -1  -4   28.21    0.85
  -9   0   5   30.18    0.90
  -3  -2  -7  156.04    4.68
   4   2   8   98.99    2.97
   2  -1  -5  664.83   19.95
 -13  -1   2   66.24    1.99
  -4   0   2   52.40    1.57
   0   1   5   11.90    0.36
  -5   1   8   10.07    0.30
   0  -2  -8    8.13    0.24
  10   0  -4    9.99    0.30
 -12  -1   1 1013.21   30.40
  -7   0   3 4471.78  134.15
  -8   0   4   12.15    0.36
  -4   1   7   15.65    0.47
   3  -2  -9   41.99    1.26
   8  -1  -7   22.11    0.66
 -18  -2   0   14.45    0.43
  15   2   3   54.69    1.64
  -9  -3  -8   13.53    0.41
   9   0  -3  343.87   10.32
  17   1  -2    4.39    0.13
  14   1  -1   39.11    1.17
  -3   1   6    5.79    0.17
  -7   1   8   23.52    0.71
   1   2   9  247.18    7.42
  -3  -3 -10   10.68    0.32
  10  -1  -7  126.22    3.79
  15   0  -5    2.85    0.09
  12   0  -4   26.13    0.78
   6   0  -2 2779.28   83.38
   1   1   4   58.08    1.74
  -2   1   5  548.10   16.44
   5   2   7   11.79    0.35
   5  -2  -9   22.47    0.67
  -7  -2  -5   12.58    0.38
   2  -2  -8   63.65    1.91
  -4  -2  -6   86.24    2.59
   7  -1  -6   50.15    1.50
 -17  -2  -1   63.22    1.90
   3   0  -1 1834.44   55.03
 -14   0   6  106.20    3.19
   2   2   8   36.36    1.09
  -1  -2  -7   31.92    0.96
   1  -1  -4  514.90   15.45
  19   1  -2   30.22    0.91
 -10   0   4   28.31    0.85
  -6   1   7    2.73    0.08
   4  -1  -5   38.63    1.16
  -3   0   1 1717.10   51.51
 -15  -1   2   59.87    1.80
  -2  -1  -3  400.52   12.02
  -8  -1  -1  366.61   11.00
  21   1  -2    5.30    0.16
  16   1  -1   14.83    0.44
  -6   0   2 1459.39   43.78
 -19  -1   4   24.07    0.72
   6   2   6  265.06    7.95
  -1   2   9   12.47    0.37
  -1  -3 -10   10.62    0.32
   7  -2  -9   10.89    0.33
 -13  -3  -6   62.04    1.86
 -16  -3  -5   21.60    0.65
  12  -1  -7    7.90    0.24
  -4  -3  -9    0.25    0.01
  14   0  -4   11.41    0.34
   3   2   7   99.73    2.99
   4  -2  -8   22.27    0.67
 -20  -2   0   36.96    1.11
 -11  -1   0  482.69   14.48
  18   2   2    6.29    0.19
 -13   0   5    9.74    0.29
   9   2   5   44.09    1.32
  -8   1   7   28.82    0.86
  -7  -3  -8   36.48    1.09
   9  -1  -6   19.29    0.58
 -18  -1   3    3.73    0.11
   1  -2  -7   80.75    2.42
  14  -1  -7    9.96    0.30
   6  -1  -5  218.98    6.57
  -9   0   3  220.62    6.62
  -1   1   4   59.47    1.78
   0   2   8   10.60    0.32
   1  -3 -10   20.48    0.61
  -2  -2  -6  177.41    5.32
   3  -1  -4  784.62   23.54
   8   0  -2 3188.61   95.66
  -3   2   9   10.66    0.32
   6  -2  -8  133.38    4.00
  11  -1  -6   28.10    0.84
  16   0  -4   16.71    0.50
 -14  -1   1  116.20    3.49
  18   1  -1    3.10    0.09
  -2  -3  -9   21.36    0.64
 -12   0   4    7.03    0.21
  -4   1   5    9.76    0.29
  -7   1   6   24.12    0.72
 -17  -1   2   16.06    0.48
   2   1   3   53.27    1.60
 -15   0   5   25.15    0.75
 -10   1   7   26.06    0.78
   5   0  -1 6899.92  207.00
  16   2   4    1.02    0.03
  13   0  -3    9.46    0.28
 -19  -1   2   12.45    0.37
   7   1   2  288.00    8.64
  -8   0   2 2585.52   77.57
  12   1   1  448.50   13.45
 -10  -1  -1 1232.52   36.98
   3  -3 -10    7.93    0.24
   3  -2  -7  163.41    4.90
   8  -1  -5  151.88    4.56
  -5   0   1 7802.19  234.07
 -10  -3  -7   19.59    0.59
  10   0  -2  221.00    6.63
 -13  -1   0  362.07   10.86
  -2   2   8   68.53    2.06
  -6   1   5  234.81    7.04
   1   2   7   48.60    1.46
  -3   1   4  432.60   12.98
  -5  -3  -8   25.93    0.78
   4   2   6   58.10    1.74
   0  -3  -9    9.36    0.28
   0  -1  -3  715.34   21.46
   5  -2  -7   21.50    0.64
   0  -2  -6   43.53    1.31
  -5  -2  -5   61.41    1.84
  17   0  -3   16.97    0.51
  -4   2   8   47.80    1.43
   2  -3  -9  146.52    4.40
   5  -1  -4   91.04    2.73
  19   1   0   13.72    0.41
 -13   0   3  310.88    9.33
 -16   0   4   27.10    0.81
 -11   1   6   13.35    0.40
  -1   2   7   32.72    0.98
   7  -2  -7  125.01    3.75
 -18  -2  -2   30.94    0.93
  12   0  -2   96.57    2.90
  -8   1   5  158.38    4.75
 -18  -1   1   30.80    0.92
   0   1   3  639.81   19.19
  -6   2   8   39.72    1.19
  -3  -3  -8   53.65    1.61
  -8  -3  -7   45.46    1.36
 -10   0   2  153.67    4.61
   2   2   6  167.93    5.04
   2  -2  -6  263.75    7.91
  -3   2   7   19.00    0.57
   9  -2  -7   40.75    1.22
   7  -1  -4   39.79    1.19
 -18   0   4   32.77    0.98
 -13   1   6   14.48    0.43
   7   2   5   28.44    0.85
  -3  -2  -5   72.35    2.17
 -15  -1   0   16.88    0.51
   7   0  -1  492.19   14.77
  -5   1   4   77.66    2.33
  -1  -3  -8   29.79    0.89
  14   1   1   43.60    1.31
 -10   1   5   11.93    0.36
  11  -2  -7   35.74    1.07
 -15   0   3   15.90    0.48
   4  -2  -6  168.27    5.05
  -6  -3  -7   59.21    1.78
   9  -1  -4   31.97    0.96
  16   0  -2   27.82    0.83
  -5   2   7   20.79    0.62
   1  -3  -8  154.29    4.63
 -20  -1   1   13.80    0.41
 -15   1   6    4.64    0.14
   6  -2  -6  322.86    9.69
  11  -1  -4  132.70    3.98
   2  -1  -3  172.98    5.19
 -12   0   2   67.24    2.02
  -7   1   4   54.71    1.64
 -12   1   5   41.66    1.25
   3  -3  -8   39.94    1.20
   9   0  -1  331.13    9.93
  -7   0   1 1002.12   30.06
 -17   0   3   32.45    0.97
  -7   2   7   48.68    1.46
 -12   2   8   26.23    0.79
 -12  -4  -8    1.90    0.06
   8  -2  -6   81.58    2.45
 -17   1   6   12.89    0.39
  -2   2   6  227.04    6.81
  11   0  -1  266.89    8.01
   2   3   9   54.54    1.64
   9   3   8   17.07    0.51
  -1  -2  -5  429.44   12.88
   4  -1  -3  267.55    8.03
   0  -4 -10    2.04    0.06
   5  -3  -8   36.36    1.09
  -2   1   3  108.64    3.26
  -9   1   4   49.76    1.49
  -2   3   9   57.86    1.74
  10  -2  -6   27.87    0.84
  13   0  -1  224.39    6.73
  11   1   2  118.46    3.55
  -4   2   6  213.95    6.42
  12  -2  -6   15.11    0.45
   5   3   8   30.21    0.91
  -4  -3  -7  135.01    4.05
  -9   0   1  247.55    7.43
 -11   2   7   32.80    0.98
   1  -2  -5  497.74   14.93
   6  -1  -3  304.05    9.12
  15   0  -1  163.46    4.90
  17   0  -1   55.58    1.67
 -16   0   2   23.55    0.71
 -11   1   4  149.11    4.47
   5   2   5   11.32    0.34
  -7  -4  -9   13.85    0.41
 -17  -2  -3   33.93    1.02
  -4   1   3  354.62   10.64
  -6   2   6  381.55   11.45
   3   3   8   64.25    1.93
  10  -1  -3  217.61    6.53
   8  -1  -3  365.14   10.95
 -14  -1  -1   67.43    2.02
   9   1   2  174.90    5.25
  -2  -3  -7   69.47    2.08
  -7  -1  -2 1403.93   42.12
   3   2   5   41.08    1.23
  -5  -4  -9    8.72    0.26
 -11  -3  -6  154.15    4.62
   3  -2  -5  115.28    3.46
 -11   0   1  274.31    8.23
 -13   1   4   43.33    1.30
   1   3   8   18.55    0.56
  -8  -2  -4  124.93    3.75
  19   0  -1   17.56    0.53
   1   2   5  515.24   15.46
  -8   2   6   60.75    1.82
 -18   0   2    4.19    0.13
  -6   1   3  375.40   11.26
   5  -2  -5   54.73    1.64
  12  -1  -3   47.81    1.43
 -16  -1  -1  113.90    3.42
 -10   2   6   69.23    2.08
  12   3   7   36.54    1.10
  -1  -4  -9   21.17    0.63
  16  -1  -3   17.53    0.53
  14  -1  -3   11.11    0.33
 -15   1   4   23.51    0.70
  -1   2   5  320.24    9.61
  -3   3   8   35.93    1.08
   2  -3  -7   80.06    2.40
  -8   1   3  364.42   10.93
   4  -3  -7  111.18    3.34
   7  -2  -5   21.70    0.65
   9  -2  -5   32.68    0.98
 -13   0   1  244.44    7.33
   6  -3  -7   67.53    2.03
 -17   1   4   19.30    0.58
 -12   2   6   28.24    0.85
  11  -2  -5    6.41    0.19
 -14   2   6   30.77    0.92
   8  -3  -7   23.07    0.69
  12  -3  -7   22.28    0.67
  -3  -1  -2  819.71   24.59
 -10   1   3  138.91    4.17
 -19   1   4   20.45    0.61
  -3   2   5   45.18    1.36
  10  -3  -7   28.76    0.86
  -2   0   0 3659.01  109.77
 -15   0   1  149.41    4.48
  -7  -3  -6  252.85    7.59
  10   2   4   20.47    0.61
 -16   2   6    8.26    0.25
  -5   2   5   27.60    0.83
  -4   0   0 1615.41   48.46
   4   0   0 1956.79   58.70
  -9  -1  -2  338.97   10.17
   6   0   0 4924.72  147.74
   4   3   7   59.77    1.79
   6   3   7   53.71    1.61
  10   3   7   24.70    0.74
 -11  -1  -2  466.53   14.00
 -21   0   1    8.22    0.25
   2   3   7   82.30    2.47
   8   3   7   20.52    0.62
  14   0   0   64.28    1.93
   8   0   0 1163.68   34.91
  12   0   0   46.59    1.40
  10   0   0  187.74    5.63
  -2   3   7   74.49    2.23
  -4   3   7  124.55    3.74
  -1  -1  -2  625.28   18.76
  -6   0   0 2230.21   66.91
 -10  -4  -8    2.23    0.07
  -8  -4  -8   13.17    0.39
  11  -1  -2  425.01   12.75
  -6   3   7   50.50    1.51
  -9  -3  -6   52.43    1.57
  -6  -2  -4  370.82   11.12
  13  -1  -2  325.07    9.75
  15  -1  -2  110.82    3.32
  -8   3   7    8.09    0.24
  -6  -4  -8   39.37    1.18
  12  -2  -4   67.39    2.02
   9  -1  -2  555.02   16.65
  -8   0   0 1203.34   36.10
 -10   3   7    8.12    0.24
  -4  -4  -8   15.77    0.47
   2  -4  -8   47.11    1.41
   6  -4  -8   24.68    0.74
  -3  -3  -6  103.30    3.10
  13  -3  -6   19.67    0.59
   6  -2  -4  154.48    4.63
  10  -2  -4   90.00    2.70
  14  -2  -4   39.54    1.19
   5  -1  -2  901.58   27.05
   3   1   2  150.20    4.51
  -2  -4  -8   28.20    0.85
   0  -4  -8   47.20    1.42
   8  -4  -8   26.02    0.78
  -5  -3  -6  175.23    5.26
   3  -3  -6   82.25    2.47
   9  -3  -6   90.52    2.72
   7  -3  -6  219.49    6.58
  11  -3  -6   40.76    1.22
  -4  -2  -4  851.57   25.55
  -2  -2  -4  910.76   27.32
   2  -2  -4  602.69   18.08
   0  -2  -4  516.69   15.50
   8  -2  -4  128.49    3.85
   1  -1  -2  614.67   18.44
   3  -1  -2  887.61   26.63
   7  -1  -2 1197.75   35.93
  -5   4   9    4.23    0.13
   4  -4  -8   62.01    1.86
  -1  -3  -6   79.61    2.39
   1  -3  -6  105.10    3.15
   5  -3  -6   73.28    2.20
   4  -2  -4  402.18   12.06
   7   4   9    8.24    0.25
  -1   1   2  877.66   26.33
  -3   1   2  643.18   19.30
  -5   1   2  801.36   24.04
   1   1   2 2818.89   84.57
 -10   0   0  317.22    9.52
  -7   1   2  591.00   17.73
 -12   0   0  180.29    5.41
 -11   1   2  258.33    7.75
  -9   1   2  221.83    6.65
  -8   2   4  194.30    5.83
  -6   2   4  113.87    3.42
  -2   2   4  708.42   21.25
   0   2   4 1707.70   51.23
 -14   0   0  138.66    4.16
 -13   1   2  272.34    8.17
  -4   2   4  334.13   10.02
 -10   2   4  161.75    4.85
   2   2   4 1304.30   39.13
 -15   1   2   65.75    1.97
 -12   2   4   59.16    1.77
  -9   3   6  159.47    4.78
  -5   3   6  298.29    8.95
  -7   3   6  229.06    6.87
  -3   3   6  138.15    4.14
 -16   0   0   84.49    2.53
 -14   2   4   52.47    1.57
 -16   2   4   43.61    1.31
   4   2   4  191.86    5.76
 -11   3   6   51.89    1.56
  -1   3   6  233.51    7.01
  19  -2  -3    6.23    0.19
 -17   1   2   21.45    0.64
 -18   2   4   13.84    0.41
 -13   3   6   42.70    1.28
   1   3   6  190.80    5.72
  16  -3  -5   10.93    0.33
 -18   0   0   58.41    1.75
 -20   2   4   16.63    0.50
 -15   3   6   12.05    0.36
 -12   4   8    9.52    0.29
  -6   4   8   28.09    0.84
  -4   4   8    6.73    0.20
  14  -3  -5   10.57    0.32
   3   3   6   39.73    1.19
   9  -4  -7   50.11    1.50
   7  -4  -7  140.11    4.20
  17  -2  -3   10.25    0.31
  12  -3  -5   22.12    0.66
  15  -2  -3   17.52    0.53
   5   3   6  100.95    3.03
   4  -5  -9   11.19    0.34
   2  -5  -9   32.38    0.97
  -2   4   8  156.76    4.70
 -14  -2  -4   55.04    1.65
  10  -3  -5    9.18    0.27
   0   4   8   65.64    1.97
   5  -4  -7   90.78    2.72
  15   0   1  189.18    5.68
  17   2   5   36.26    1.09
   2   4   8   72.23    2.17
  -2  -5  -9   28.71    0.86
  14  -1  -1   38.91    1.17
  16   1   3   20.04    0.60
  -1   5  10    7.31    0.22
   3  -4  -7   69.64    2.09
 -12  -2  -4   27.68    0.83
   8  -3  -5   40.63    1.22
  11  -2  -3   64.70    1.94
   4   4   8   10.58    0.32
  -1  -4  -7   11.66    0.35
   1  -4  -7   21.90    0.66
   6  -3  -5   18.55    0.56
  12  -1  -1  175.52    5.27
   7   3   6  313.78    9.41
   6   4   8   43.39    1.30
   7  -5  -8    1.26    0.04
 -20  -2  -4   10.60    0.32
   4  -3  -5  115.35    3.46
   9  -2  -3   72.89    2.19
  -3  -4  -7  149.66    4.49
 -14   3   5   22.87    0.69
   6   2   4  115.65    3.47
   7  -2  -3  564.34   16.93
  13   0   1  188.53    5.66
 -12   3   5   33.25    1.00
  -9   4   7   33.27    1.00
   2  -3  -5  205.54    6.17
 -15   2   3   36.76    1.10
 -17   2   3   26.86    0.81
   8   4   8   22.80    0.68
  -5  -4  -7  153.25    4.60
 -16  -2  -4    5.64    0.17
  -8   3   5   36.53    1.10
 -10   3   5   57.67    1.73
  -7   4   7   63.26    1.90
   0  -3  -5 1092.51   32.78
  15  -3  -4    0.35    0.01
  10  -1  -1  102.49    3.07
 -13   2   3   26.94    0.81
   5  -5  -8    9.05    0.27
  -7  -4  -7   14.55    0.44
 -20   1   1   30.85    0.93
 -11   2   3   66.53    2.00
  -5   4   7   55.96    1.68
  10  -4  -6   21.13    0.63
 -18   1   1   31.04    0.93
 -16   1   1   72.54    2.18
  -6   3   5   26.49    0.79
  -2   5   9    3.58    0.11
   5  -2  -3  417.08   12.51
 -14   1   1   51.73    1.55
  -9   2   3  133.57    4.01
  -3   4   7   44.79    1.34
   3  -5  -8   10.10    0.30
  13  -3  -4   30.58    0.92
  -4   3   5   92.71    2.78
   8  -4  -6   32.37    0.97
  -7   2   3  975.88   29.28
 -12   1   1  323.43    9.70
  -2   3   5   50.68    1.52
   1  -5  -8   12.54    0.38
   6  -4  -6   50.89    1.53
  -4  -3  -5  240.07    7.20
  11  -3  -4   29.23    0.88
   8  -1  -1   93.64    2.81
  11   3   6   77.76    2.33
  -2  -3  -5   55.57    1.67
  -5   2   3  385.21   11.56
   8   2   4  137.89    4.14
   0   3   5  969.09   29.07
 -10   1   1  145.10    4.35
 -14   4   6    7.36    0.22
   3  -2  -3  256.85    7.71
  13   3   6   50.34    1.51
  -3  -5  -8   40.50    1.21
   4  -4  -6   58.88    1.77
   6  -1  -1 3150.18   94.51
  -8   1   1   54.80    1.64
   9   3   6    7.11    0.21
   3   4   7  118.71    3.56
  -9  -4  -7    4.02    0.12
   8  -5  -7   89.62    2.69
   2  -4  -6   97.99    2.94
  10  -2  -2  317.16    9.52
  -3   2   3  291.39    8.74
   4   5   9    4.35    0.13
  -6   1   1 3278.88   98.37
   7  -3  -4   22.50    0.67
 -11   3   4   21.18    0.64
   1  -2  -3  339.96   10.20
  -6   4   6   77.54    2.33
  15   2   5   19.70    0.59
  12   4   8   15.07    0.45
  11  -4  -5   31.75    0.95
 -11   0  -1  903.62   27.11
   6  -5  -7   21.12    0.63
   2   3   5   63.53    1.91
  14  -3  -3   22.58    0.68
   5   4   7   52.13    1.56
   0  -4  -6   82.84    2.48
   5  -3  -4   98.19    2.95
  -1   2   3  106.64    3.20
  -4   4   6   64.92    1.95
  -1   5   8   24.99    0.75
   4  -5  -7   41.96    1.26
  -7  -5  -8   15.73    0.47
   8  -6  -8   49.88    1.50
  13  -5  -6   14.82    0.44
   9  -4  -5   43.55    1.31
   4  -1  -1 6970.60  209.12
  13  -1   0   21.22    0.64
 -10   5   7   16.97    0.51
 -18  -1  -3   50.73    1.52
  -1  -2  -3 1172.65   35.18
  17  -2  -1   44.15    1.32
  -4   1   1 6383.38  191.50
 -12   2   2    5.35    0.16
  -7   3   4   37.73    1.13
 -10   2   2  359.00   10.77
  12   1   3   41.95    1.26
 -13   4   5  103.09    3.09
  -8   5   7  102.41    3.07
  -2  -4  -6   54.27    1.63
  -6  -3  -5   38.64    1.16
  -2   4   6   93.67    2.81
   7   4   7   16.09    0.48
   1   5   8   19.00    0.57
   6  -6  -8    2.12    0.06
   2  -5  -7   70.91    2.13
  12  -3  -3   16.02    0.48
   8  -2  -2  245.37    7.36
 -16   3   3   58.71    1.76
 -18   3   3    7.97    0.24
 -12   6   8    0.71    0.02
   7  -4  -5   56.84    1.70
   3  -3  -4  312.36    9.37
 -11   4   5   44.35    1.33
   4   3   5  157.28    4.72
 -15   1   0   13.62    0.41
  -5   3   4   75.73    2.27
  19  -3  -2    6.23    0.19
  14  -4  -4   51.77    1.55
   4  -6  -8   12.46    0.37
 -14   3   3   44.24    1.33
   0   4   6   38.07    1.14
   1   2   3  200.32    6.01
  -9   4   5   37.25    1.12
  -8   2   2  227.25    6.82
   5  -4  -5   74.28    2.23
  10  -3  -3  100.24    3.01
  -3   3   4  152.95    4.59
   1  -3  -4  659.31   19.78
 -18   4   4   14.45    0.43
   7  -5  -6   48.84    1.46
  -7   4   5   45.89    1.38
  12  -4  -4   16.17    0.48
 -12   3   3   26.24    0.79
   6  -2  -2  126.31    3.79
  -9   0  -1  142.00    4.26
 -13   1   0   41.07    1.23
   2   4   6  190.61    5.72
  -2   5   7   19.48    0.58
   2  -6  -8   37.89    1.14
  -4  -4  -6  129.39    3.88
  13  -2  -1   35.78    1.07
   9  -6  -7    7.64    0.23
  15  -3  -2   35.55    1.07
  -2  -5  -7   93.45    2.80
   3  -4  -5  181.62    5.45
   5   5   8    7.34    0.22
   0  -6  -8   57.83    1.73
   8  -3  -3   92.42    2.77
  17  -4  -3   23.24    0.70
  16  -1   1   49.75    1.49
  -6   2   2  190.41    5.71
 -10   3   3   78.11    2.34
  10  -4  -4   53.04    1.59
 -15   2   1   42.19    1.27
  -5   4   5   57.60    1.73
   2  -7  -9    7.33    0.22
  -1   3   4  605.37   18.16
   9   4   7   71.21    2.14
  -4   6   8   23.54    0.71
 -11  -5  -8    8.12    0.24
   7  -6  -7   14.23    0.43
   5  -5  -6   25.68    0.77
  14  -6  -6    9.47    0.28
  12  -5  -5   22.26    0.67
  17   1   4    5.12    0.15
 -12   4   4   26.91    0.81
  -8  -3  -5   82.01    2.46
  18  -2   0   18.34    0.55
   6   3   5   47.95    1.44
  -6  -4  -6  182.96    5.49
 -14  -1  -3   16.00    0.48
 -17   3   2   39.19    1.18
  -7   5   6   71.21    2.14
  14  -7  -7    1.02    0.03
   0  -7  -9    8.74    0.26
  -2  -6  -8   92.80    2.78
  -4  -5  -7  120.41    3.61
  17  -5  -4   12.79    0.38
  -3  -2  -3  425.17   12.75
  13  -3  -2   58.56    1.76
  -8   3   3  153.10    4.59
   7  -7  -8   10.97    0.33
 -16   0  -2   56.05    1.68
   6  -3  -3  189.75    5.69
  15  -4  -3    9.40    0.28
  11  -2  -1   45.93    1.38
 -13   2   1   40.83    1.22
  -3   4   5  213.84    6.42
  -2   6   8   47.82    1.43
   5  -6  -7   13.32    0.40
   3  -5  -6   72.67    2.18
  -1  -3  -4  561.46   16.84
   8  -4  -4  120.04    3.60
   4  -2  -2  726.76   21.80
 -19   4   3   10.03    0.30
   1  -4  -5   30.49    0.91
   2  -1  -1 2714.54   81.44
 -10   4   4   73.30    2.20
  -9   6   7   10.71    0.32
  -7   0  -1  674.91   20.25
 -15   3   2   67.01    2.01
   4   4   6   35.15    1.05
   7  -8  -9    1.06    0.03
  17  -6  -5   12.83    0.38
  -2   1   1 2076.15   62.28
  -4   7   9   15.51    0.46
 -18   1  -1   15.52    0.47
   2   5   7   40.12    1.20
  -2  -7  -9    9.76    0.29
  -4   2   2  609.67   18.29
 -12   5   5   18.05    0.54
  -7   6   7   17.79    0.53
  18  -3  -1   19.48    0.58
 -17   4   3   32.40    0.97
   0   6   8   58.18    1.75
   3  -6  -7   48.96    1.47
   1   3   4  817.41   24.52
  -9   1   0   46.64    1.40
  -6   3   3  163.72    4.91
   3   2   3  283.86    8.52
  -9   7   8   14.22    0.43
   8  -5  -5    7.56    0.23
  13  -4  -3   18.12    0.54
 -11   2   1   16.96    0.51
  -8   4   4  103.87    3.12
  10  -7  -7    9.76    0.29
   6  -4  -4  106.17    3.18
  11  -3  -2  573.50   17.20
 -13   3   2  101.34    3.04
  -1   4   5  123.43    3.70
  -3   5   6  101.94    3.06
  -5   6   7   29.99    0.90
   3  -7  -8   16.59    0.50
   8  -6  -6   90.77    2.72
   4   5   7   81.48    2.44
  -7   7   8   13.99    0.42
   1  -5  -6   30.06    0.90
  10   1   3  147.19    4.42
  -6  -5  -7    9.66    0.29
  13  -5  -4   28.87    0.87
  16  -3  -1   61.47    1.84
   9  -2  -1   33.96    1.02
  17   0   3    1.93    0.06
  -1  -4  -5   89.89    2.70
   4  -3  -3  437.54   13.13
  11  -4  -3  101.59    3.05
 -11   3   2  437.54   13.13
 -13   4   3   26.79    0.80
   2   6   8   97.13    2.91
 -17  -2  -5    1.40    0.04
   6  -5  -5   41.93    1.26
  13  -6  -5    8.27    0.25
  -6   4   4   95.54    2.87
  11   4   7   11.52    0.35
  -8   5   5   13.00    0.39
   6   4   6   45.11    1.35
 -12  -1  -3   23.51    0.70
  16  -4  -2   25.90    0.78
 -16   2   0  164.61    4.94
  15   1   4    8.78    0.26
   1  -7  -8   70.34    2.11
 -19  -1  -4   11.45    0.34
  -3  -3  -4  125.53    3.77
  -9   2   1  149.24    4.48
  -3   6   7   39.91    1.20
   6  -6  -6  109.52    3.29
   9  -3  -2  302.29    9.07
  21  -4  -1    6.52    0.20
  -4   3   3  377.54   11.33
  -1  -5  -6   41.39    1.24
   4  -4  -4  585.46   17.56
  11  -5  -4   29.45    0.88
  -1   5   6   10.79    0.32
   1  -8  -9    7.21    0.22
  16  -5  -3   51.30    1.54
 -14   1  -1   33.50    1.00
  -8   6   6  142.77    4.28
  -8  -5  -7   59.60    1.79
   6  -7  -7   70.26    2.11
 -18   4   2   15.89    0.48
  11  -6  -5  181.04    5.43
   2  -2  -2  167.55    5.03
 -11   4   3   88.15    2.64
   4   6   8   42.44    1.27
   8   3   5   56.83    1.70
   9  -4  -3  152.19    4.57
  12  -1   1  211.26    6.34
   6  -8  -8   12.41    0.37
  11  -7  -6   15.49    0.46
   4  -5  -5   83.50    2.50
  -7   1   0   34.97    1.05
 -16   3   1   98.23    2.95
  -4   4   4  742.89   22.29
  -8  -6  -8   17.99    0.54
  -1  -7  -8   38.81    1.16
  -9   3   2  347.72   10.43
  -2   2   2   84.37    2.53
 -13   6   5    8.05    0.24
  -3  -4  -5   93.16    2.79
   3   3   4  252.24    7.57
   4  -6  -6   64.94    1.95
   7  -2  -1  686.01   20.58
  -1  -8  -9    8.83    0.26
 -11   5   4   31.29    0.94
  -6   6   6  170.73    5.12
   6   5   7   25.10    0.75
   2  -3  -3  231.61    6.95
  14  -4  -2    9.36    0.28
   4  -7  -7   82.71    2.48
  -3  -5  -6  156.58    4.70
 -19  -2  -5    8.39    0.25
   1   5   6   16.47    0.49
  -8   8   8   17.36    0.52
  -1   7   8   35.24    1.06
   4  -8  -8   14.75    0.44
   9  -6  -5   76.73    2.30
  -3  -6  -7   69.29    2.08
  14  -5  -3    7.43    0.22
  -9   4   3  123.37    3.70
 -11   6   5  235.55    7.07
  -4   5   5  137.11    4.11
  -6   7   7   76.36    2.29
   9  -7  -6   65.86    1.98
   2  -4  -4  168.15    5.04
  -2   3   3  214.47    6.43
  14  -6  -4    6.86    0.21
  -7   2   1  466.82   14.00
  10   0   2  208.39    6.25
  14  -7  -5   28.30    0.85
  12  -2   0   16.11    0.48
   9  -8  -7   14.10    0.42
   7  -3  -2  183.86    5.52
  12  -3  -1   29.99    0.90
 -12   1  -1  391.63   11.75
  -9   5   4    2.99    0.09
   7  -4  -3  152.90    4.59
 -14   4   2   14.79    0.44
  15   0   3   19.54    0.59
  -4   6   6   52.95    1.59
  -6   8   8    5.58    0.17
   2  -6  -6  126.73    3.80
   2  -5  -5   75.26    2.26
  12  -4  -2   41.09    1.23
 -10  -4  -6   14.26    0.43
   7  -5  -4   68.46    2.05
  -5   0  -1 5526.47  165.79
  17  -4  -1   11.65    0.35
  -7   3   2  182.83    5.48
   2  -7  -7   89.02    2.67
 -10  -3  -5    6.06    0.18
  12  -5  -3  120.23    3.61
 -14   5   3   96.20    2.89
  -9   6   5   69.51    2.09
   3   4   5  113.46    3.40
   2  -8  -8   31.99    0.96
   7  -7  -6  259.18    7.78
   7  -6  -5  130.03    3.90
  -2   4   4  135.89    4.08
   8   4   6   40.07    1.20
  12  -6  -4   59.19    1.78
 -12   2   0  130.94    3.93
  -4   7   7   65.30    1.96
   1   7   8   49.64    1.49
   7  -9  -8    6.72    0.20
  12  -7  -5    7.17    0.21
  -9   7   6   86.14    2.58
  -7   4   3  200.70    6.02
   3   5   6   91.61    2.75
  -5  -2  -3  429.82   12.89
  -2   5   5   60.09    1.80
 -12   3   1   29.06    0.87
 -14   7   5   29.52    0.89
  -7   5   4   62.63    1.88
  -5  -3  -4   68.32    2.05
 -12   4   2   89.61    2.69
   3   6   7  142.98    4.29
   8   5   7   33.47    1.00
  -5  -4  -5   78.42    2.35
   0   1   1 1643.75   49.31
  -2   6   6  136.26    4.09
   0  -1  -1  763.48   22.90
  20   0   4    2.63    0.08
  -7   6   5  150.61    4.52
   0  -9  -9    3.10    0.09
 -12   5   3  100.52    3.02
  -2   7   7  355.58   10.67
  -7   7   6  144.20    4.33
   5  -8  -7   31.64    0.95
   0  -6  -6   29.31    0.88
   5  -7  -6   88.59    2.66
   0  -4  -4  408.28   12.25
   3   7   8   53.45    1.60
  10  -8  -6    2.10    0.06
   5  -6  -5   71.45    2.14
   0  -3  -3  109.22    3.28
 -12   6   4   19.30    0.58
  10  -7  -5   58.08    1.74
  15  -7  -4    5.54    0.17
   5  -3  -2  116.38    3.49
   5  -2  -1  397.25   11.92
   3   8   9    8.62    0.26
   5  -5  -4   38.83    1.16
  10  -6  -4   33.30    1.00
   5  -4  -3  226.45    6.79
  10  -5  -3    9.36    0.28
   0  -2  -2  477.05   14.31
   5  -1   0  184.72    5.54
  -7   8   7   23.85    0.72
  10  -3  -1   30.24    0.91
  10  -2   0   83.12    2.49
   0   2   2  453.38   13.60
   0   3   3  123.62    3.71
   0  -5  -5   21.81    0.65
  -5   1   0  299.30    8.98
  -5   2   1  573.81   17.21
   8   6   8    8.32    0.25
 -10   2   0  314.18    9.43
 -10   3   1  135.37    4.06
  -5   3   2   41.85    1.26
 -10   1  -1   83.39    2.50
  -5   4   3   93.71    2.81
 -10   4   2  143.62    4.31
 -10   5   3   25.00    0.75
   0   4   4  319.50    9.59
  18  -4   0   38.23    1.15
  18  -3   1    6.43    0.19
  -5   5   4   20.25    0.61
 -10   6   4   94.02    2.82
  -5   6   5  109.91    3.30
   8  -8  -6   13.89    0.42
  13  -8  -5   10.85    0.32
  13  -7  -4    6.74    0.20
 -10   0  -2  166.85    5.01
 -15   5   2   57.55    1.73
 -15   6   3   26.43    0.79
   5   2   3  156.86    4.71
 -10   7   5   78.54    2.36
  -5   7   6  120.57    3.62
  -2  -8  -8   14.25    0.43
   3  -8  -7    8.43    0.25
 -15   4   1   22.10    0.66
   0   5   5   12.39    0.37
 -10   8   6   25.34    0.76
  -5   8   7   42.88    1.29
   8  -7  -5   42.01    1.26
   0   6   6   22.60    0.68
   3  -7  -6  182.61    5.48
  13  -5  -2   57.44    1.72
   0   7   7   19.61    0.59
  -2  -7  -7  188.90    5.67
   8  -6  -4   51.75    1.55
 -15   1  -2   25.22    0.76
 -15   2  -1   37.79    1.13
  18  -2   2   18.72    0.56
   5   4   5  120.13    3.60
  -2  -6  -6  293.57    8.81
  13  -4  -1   54.62    1.64
   5   3   4   99.81    2.99
  18   1   5    6.27    0.19
   5   6   7   26.05    0.78
   6 -10  -8   22.51    0.67
   3  -6  -5   57.45    1.72
   8  -5  -3  306.50    9.20
   5   7   8   10.05    0.30
  11  -9  -6    5.24    0.16
  10   5   7   21.47    0.64
   6  -9  -7   11.23    0.34
   3  -5  -4  299.11    8.97
  -7  -5  -6   95.38    2.86
  -2  -5  -5   56.19    1.69
   8  -4  -2  855.52   25.67
  -4  -9  -9   12.21    0.37
  11  -8  -5   33.64    1.01
   6  -8  -6  125.92    3.78
  13  -3   0   14.95    0.45
  -8   7   5   64.57    1.94
  -8   8   6   25.29    0.76
 -13   7   4    4.96    0.15
  -8   6   4   39.84    1.19
 -13   9   6    9.31    0.28
  -3   7   6  234.79    7.04
   3  -4  -3  430.88   12.93
  -3   8   7   15.34    0.46
  -3  10   9    1.02    0.03
  -8   5   3  353.42   10.60
  -3   6   5   29.60    0.89
  -2  -4  -4  424.91   12.75
   8  -3  -1  568.44   17.05
  -3   5   4  279.68    8.39
   6  -7  -5  310.98    9.33
   2   7   7  172.92    5.19
   2   8   8   19.77    0.59
   2   6   6  285.58    8.57
  -7  -4  -5   29.82    0.89
  21  -5   0    2.16    0.06
  -8   4   2  996.66   29.90
  -3   4   3  243.29    7.30
   1  -7  -6   24.37    0.73
  13   0   3   29.67    0.89
   9  -9  -6    4.31    0.13
  14  -8  -4   10.95    0.33
  -8   3   1  436.55   13.10
  10   6   8   38.04    1.14
  11  -5  -2   41.41    1.24
  19  -6  -1   20.48    0.61
   8  -2   0  176.51    5.30
 -16   7   3    3.24    0.10
   6  -6  -4   84.15    2.52
 -11   8   5   21.96    0.66
  -6  10   8   53.03    1.59
   4  -9  -7   42.70    1.28
 -10  -1  -3   32.49    0.97
  14  -7  -3   23.08    0.69
   3  -3  -2  247.11    7.41
 -11   7   4  103.57    3.11
   9  -8  -5   35.95    1.08
  17  -9  -4    3.87    0.12
  -6   8   6  133.98    4.02
  10   4   6   11.98    0.36
  -4  -7  -7   23.78    0.71
 -13   2  -1   22.49    0.67
   1  -6  -5  139.10    4.17
  11  -4  -1   12.53    0.38
 -11   6   3  101.10    3.03
  -6   7   5  331.34    9.94
   2   5   5   10.67    0.32
   4  -8  -6   32.68    0.98
   6  -5  -3   44.02    1.32
  -8   2   0  172.19    5.17
  -3   3   2  172.84    5.19
   2   4   4  481.28   14.44
  -6   6   4   92.50    2.77
  -1   8   7   27.54    0.83
   7   7   8    9.80    0.29
  -4  -6  -6   31.01    0.93
 -11   5   2   41.47    1.24
  -1  -8  -7   15.81    0.47
  -1   7   6   33.88    1.02
   7   6   7   61.12    1.83
   7  -9  -6   13.97    0.42
  -2  -3  -3  245.57    7.37
  10   3   5   39.74    1.19
  -9  -6  -7   18.90    0.57
   4  -7  -5   19.44    0.58
  12  -8  -4   88.88    2.67
  -6   5   3   21.55    0.65
   7   5   6  125.32    3.76
   5 -11  -8   19.39    0.58
   1  -5  -4   27.06    0.81
   9  -6  -3   53.93    1.62
   6  -4  -2  958.98   28.77
   3  -2  -1  486.82   14.60
 -16   4   0   50.62    1.52
  -9   8   5   21.01    0.63
  -1   6   5  144.66    4.34
  -4   9   7   54.96    1.65
  11  -3   0   24.79    0.74
  -3   2   1  487.76   14.63
 -14   7   3   24.36    0.73
   4   8   8    7.82    0.23
  -1  -7  -6   26.52    0.80
  10 -10  -6    6.81    0.20
   4   7   7  102.18    3.07
   7  -8  -5   82.53    2.48
  -4   8   6   29.61    0.89
 -21   4  -1    5.37    0.16
   2   3   3  223.45    6.70
  -7  11   8    6.25    0.19
   5 -10  -7   10.27    0.31
  -4  -5  -5  100.81    3.02
   4  -6  -4  148.11    4.44
  -1   5   4   98.95    2.97
   1   9   8   11.79    0.35
  -6   4   2  968.34   29.05
   2  -8  -6  140.78    4.22
  -4   7   5   16.19    0.49
   4   6   6   60.66    1.82
   9  -5  -2   17.13    0.51
  -8   1  -1   34.14    1.02
   8   0   2  804.82   24.14
  10  -9  -5   24.06    0.72
  11  -2   1   21.42    0.64
  -9   6   3   28.66    0.86
   8 -11  -7    5.52    0.17
  13 -10  -5   14.32    0.43
  16   0   4   31.29    0.94
  -7   9   6   33.39    1.00
  12  -6  -2   55.25    1.66
 -12   8   4   44.26    1.33
   0 -10  -8   23.33    0.70
   7  -7  -4   36.10    1.08
   6  -3  -1  145.22    4.36
  -6  -7  -7   30.35    0.91
   1  -4  -3  101.79    3.05
  10  -8  -4  175.08    5.25
  14  -3   1   30.39    0.91
  -7   8   5  120.06    3.60
 -12   7   3  107.20    3.22
 -15   9   4   25.75    0.77
  -1  -6  -5  200.07    6.00
  -9   5   2   24.68    0.74
  -4   6   4  101.73    3.05
   8 -10  -6   21.19    0.64
  13  -9  -4   20.37    0.61
  -5  11   8   11.10    0.33
  -3  -8  -7   35.56    1.07
 -15  -2  -5    1.26    0.04
  16 -10  -4   14.39    0.43
   9  -4  -1  394.45   11.83
  -6   3   1  177.50    5.33
  -1   4   3  118.88    3.57
  -2   9   7    7.86    0.24
   4  -5  -3  183.15    5.49
 -14   4   0  150.74    4.52
   7   4   5   36.18    1.09
   1   7   6   32.40    0.97
  -7  -3  -4   22.06    0.66
 -10   9   5   48.10    1.44
 -13  11   6   10.97    0.33
   0  -9  -7   34.70    1.04
  12  -5  -1   31.73    0.95
 -15   8   3   42.28    1.27
  19  -1   4    0.54    0.02
  -5  10   7    6.10    0.18
   9   7   8    0.96    0.03
   7  -6  -3  135.57    4.07
 -12   6   2   68.86    2.07
  -7   7   4   26.65    0.80
  -2   8   6  100.89    3.03
 -13  10   5   12.45    0.37
   4   5   5   47.00    1.41
   6   8   8    8.51    0.25
   8  -9  -5   30.92    0.93
  -6  -6  -6   82.51    2.48
  11 -10  -5   16.35    0.49
  -4   5   3  109.20    3.28
 -10   8   4  165.64    4.97
   1   6   5  254.77    7.64
  -4  -4  -4  473.10   14.19
  -9   4   1  325.98    9.78
   0  10   8   11.57    0.35
  -3  -7  -6  171.81    5.15
  -7   6   3  138.06    4.14
   1 -11  -8   11.76    0.35
   0  -8  -6  105.53    3.17
   1  -3  -2  145.96    4.38
  -2  -2  -2  285.46    8.56
  -3  11   8    1.88    0.06
   6   7   7   22.69    0.68
  -1  -5  -4   76.84    2.30
   2  -6  -4   56.97    1.71
   4  -4  -2  959.43   28.78
   3   8   7   22.27    0.67
   5  -7  -4   53.72    1.61
  11  -9  -4   81.24    2.44
   0   9   7   36.51    1.10
   6 -10  -6   20.03    0.60
   6  -2   0  673.71   20.21
   3  -9  -6   42.12    1.26
   8  -8  -4   78.37    2.35
  10  -6  -2   41.98    1.26
   7  -5  -2   93.84    2.81
   9   6   7   14.53    0.44
  -6   2   0  742.68   22.28
   3  -1   0  211.73    6.35
 -11  10   5   22.98    0.69
  -4   4   2 1143.95   34.32
  16   1   5   11.19    0.34
  -3  10   7   16.34    0.49
   2   2   2  181.42    5.44
  -1   3   2  272.68    8.18
   1 -10  -7   96.69    2.90
  -3   1   0   52.97    1.59
  -2  -9  -7   12.99    0.39
   9 -10  -5   59.93    1.80
  -7   5   2  117.37    3.52
  -5   7   4   49.16    1.47
   6  -9  -5  182.38    5.47
  11  -8  -3  116.59    3.50
  -2   6   4   20.53    0.62
   4   4   4  532.45   15.97
 -10   6   2   58.52    1.76
  -8   8   4   80.65    2.42
   1   5   4   42.94    1.29
   0   8   6  110.21    3.31
  15  -4   1   21.19    0.64
 -11   9   4   98.85    2.97
  19   0   5    3.15    0.09
  -6  10   6    7.96    0.24
   3   7   6  111.24    3.34
  -3   9   6    0.98    0.03
   2 -12  -8    5.39    0.16
   8  -7  -3   52.69    1.58
 -16   8   2   73.33    2.20
   6   6   6  100.72    3.02
   0  -7  -5   44.69    1.34
  -8   0  -2  337.99   10.14
  -4  12   8   11.34    0.34
  12 -10  -4   59.82    1.79
   5  -6  -3   43.99    1.32
  -3  -6  -5   36.03    1.08
  10  -5  -1   10.20    0.31
   7   3   4   29.28    0.88
   8   8   8    6.31    0.19
   2  -5  -3  100.16    3.00
  -6   9   5  149.47    4.48
  -9  10   5   76.67    2.30
   9   5   6   11.38    0.34
   1  -9  -6   23.35    0.70
   7  -4  -1  429.60   12.89
  12  -3   1   27.63    0.83
  -1  10   7  115.42    3.46
  -8   7   3   31.06    0.93
 -14   9   3    5.04    0.15
  -3   8   5   18.59    0.56
   6  -8  -4   32.38    0.97
  10 -11  -5   16.75    0.50
  -5   6   3   33.51    1.00
   2 -11  -7   45.41    1.36
  -1  -4  -3  247.83    7.43
   0   7   5   66.56    2.00
   2   9   7   35.21    1.06
 -11  -5  -6   27.44    0.82
  -2   5   3  239.26    7.18
  -7   4   1  523.27   15.70
  15   4   7    7.52    0.23
  -2  -8  -6  107.88    3.24
   7 -10  -5  201.45    6.04
   3  -7  -4   72.47    2.17
  12  -9  -3   30.50    0.91
   4  -3  -1 4725.69  141.77
   8  -6  -2   78.63    2.36
 -12  10   4    6.14    0.18
  -1 -10  -7   90.36    2.71
 -12   3  -1   34.16    1.02
   9  -2   1   21.81    0.65
  -4   3   1 4639.55  139.19
  15  -3   2   35.85    1.08
   5   8   7   45.65    1.37
   0 -12  -8    4.91    0.15
  -5  -7  -6   68.45    2.05
 -14   8   2   10.56    0.32
  -2  12   8    9.24    0.28
  14  -7  -1   32.81    0.98
  -6   8   4   26.18    0.78
   3   6   5   10.65    0.32
   4  -9  -5   19.54    0.59
   9  -8  -3   68.54    2.06
   1   4   3  209.83    6.29
  -1   9   6   31.34    0.94
  15  -9  -2   15.49    0.46
  -3 -11  -8    9.86    0.30
  10 -10  -4    5.59    0.17
  10  -4   0   72.51    2.18
 -10  11   5   43.62    1.31
   5  -5  -2  512.32   15.37
 -16   6   0   59.36    1.78
  16  -5   1   24.03    0.72
  -8   6   2   76.78    2.30
 -15  10   3   14.23    0.43
  -3   7   4   56.10    1.68
  -7  10   5  274.94    8.25
   2 -10  -6   53.70    1.61
   1  -8  -5   30.26    0.91
 -12   9   3   47.58    1.43
   2   8   6   80.89    2.43
   6  -7  -3   97.18    2.92
 -20   9   1    4.47    0.13
   6   5   5   17.82    0.53
  -2  11   7   19.95    0.60
   3 -12  -7   14.41    0.43
  -4  -3  -3  295.06    8.85
  11  -6  -1   34.87    1.05
  12   4   6   10.75    0.32
  -5   5   2  515.31   15.46
  11   0   3  126.25    3.79
  -9   8   3   60.94    1.83
  -4   9   5   36.30    1.09
   0   6   4   34.56    1.04
  11   6   7    5.61    0.17
   1  10   7   93.16    2.79
   7   9   8    9.45    0.28
  -3  -5  -4   62.87    1.89
  -1  -9  -6   10.62    0.32
 -10  10   4    1.42    0.04
  -6   7   3   91.98    2.76
   5   7   6   10.50    0.31
   5 -10  -5   18.06    0.54
   4  -8  -4   74.99    2.25
   3  -6  -3  105.93    3.18
   2  -4  -2  626.47   18.79
   1  -2  -1 1067.27   32.02
  -1   2   1  186.08    5.58
   4   9   7    9.46    0.28
  -2  10   6   60.23    1.81
   4   3   3   33.39    1.00
   8  -5  -1  258.64    7.76
   0   0   0    0.00    0.00

_computing_structure_solution     'SHELXT 2014/5 (Sheldrick, 2014)'
;
_shelx_hkl_checksum                45421
_olex2_exptl_crystal_mounting_method 
 'copper grid coated with ultrathin carbon film'
_olex2_submission_special_instructions  'No special instructions were received'

# start Validation Reply Form
_vrf_RINTA01_COF-300-H2O_cryo
;
PROBLEM: The value of Rint is greater than 0.25
RESPONSE:Due to the dynamical effect of electron diffraction
;
_vrf_THETM01_COF-300-H2O_cryo
;
PROBLEM: The value of sine(theta_max)/wavelength is less than 0.575
RESPONSE: Due to the short wavelength of electron
;
_vrf_PLAT020_COF-300-H2O_cryo
;
PROBLEM: The Value of Rint is Greater Than 0.12 .........      0.298 Report
RESPONSE:Due to the dynamical effect of electron diffraction
;
_vrf_PLAT029_COF-300-H2O_cryo
;
PROBLEM: _diffrn_measured_fraction_theta_full value Low .      0.784 Why?  
RESPONSE: Due to the short wavelength of electron and limitation of sample tilting
;
_vrf_PLAT051_COF-300-H2O_cryo
;
PROBLEM: Mu(calc) and Mu(CIF) Ratio Differs from 1.0 by .      86.09 %     
RESPONSE: Due to different atomic scattering factor for electron
;
_vrf_PLAT082_COF-300-H2O_cryo
;
PROBLEM: High R1 Value ..................................       0.29 Report
RESPONSE: Refinement is only based on kinematical assumption 
;
_vrf_PLAT084_COF-300-H2O_cryo
;
PROBLEM: High wR2 Value (i.e. > 0.25) ...................       0.62 Report
RESPONSE: Refinement is only based on kinematical assumption
;
_vrf_PLAT183_COF-300-H2O_cryo
;
PROBLEM: Missing _cell_measurement_reflns_used Value ....     Please Do !  
RESPONSE: Not available 
;
_vrf_PLAT184_COF-300-H2O_cryo
;
PROBLEM: Missing _cell_measurement_theta_min Value ......     Please Do !  
RESPONSE: Not available 
;
_vrf_PLAT185_COF-300-H2O_cryo
;
PROBLEM: Missing _cell_measurement_theta_max Value ......     Please Do !  
RESPONSE: Not available 
;
_vrf_PLAT660_COF-300-H2O_cryo
;
PROBLEM: No Valid _diffrn_radiation_type Value Reported .     Please Do !  
RESPONSE: electron
;
_vrf_PLAT340_COF-300-H2O_cryo
;
PROBLEM: Low Bond Precision on  C-C Bonds ...............    0.01914 Ang.  
RESPONSE: Refinement is only based on kinematical assumption
;
_vrf_PLAT420_COF-300-H2O_cryo
;
PROBLEM: D-H Without Acceptor       O1       --H1A      .     Please Check 
RESPONSE: Refinement is only based on kinematical assumption could not locate hydrogen
;
_vrf_PLAT911_COF-300-H2O_cryo
;
PROBLEM: Missing FCF Refl Between Thmin & STh/L=    0.554        279 Report
RESPONSE: Due to different atomic scattering factor for electron
;
_vrf_PLAT930_COF-300-H2O_cryo
;
PROBLEM: FCF-based   Twin Law ( 1 1 0)[ 1 1 0] Est.d BASF       0.28 Check 
RESPONSE: Checked twining but not improve refinement
;
# end Validation Reply Form
