data_300_hydrated
_audit_creation_date              2018-03-17
_audit_creation_method
;
Olex2 1.2
(compiled 2017.08.10 svn.r3458 for OlexSys, GUI svn.r5381)
;
_shelx_SHELXL_version_number      '2014/7'
_publ_contact_author_address      ?
_publ_contact_author_email        ?
_publ_contact_author_id_orcid     ?
_publ_contact_author_name         ''
_publ_contact_author_phone        ?
_publ_section_references
;
Dolomanov, O.V., Bourhis, L.J., Gildea, R.J, Howard, J.A.K. & Puschmann, H.
 (2009), J. Appl. Cryst. 42, 339-341.

Sheldrick, G.M. (2008). Acta Cryst. A64, 112-122.
;
_chemical_name_common             'hydrated COF-300'
_chemical_name_systematic         ?
_chemical_formula_moiety          'C82 H56 N8, 8(H2 O)'
_chemical_formula_sum             'C82 H72 N8 O8'
_chemical_formula_weight          1297.47
_chemical_melting_point           ?
loop_
  _atom_type_symbol
  _atom_type_description
  _atom_type_scat_dispersion_real
  _atom_type_scat_dispersion_imag
  _atom_type_scat_source
 'C' 'C' 0.0090 0.0040 'International Tables Vol C Tables 4.2.6.8 and 6.1.1.4'
 'H' 'H' 0.0000 0.0000 'International Tables Vol C Tables 4.2.6.8 and 6.1.1.4'
 'N' 'N' 0.0150 0.0080 'International Tables Vol C Tables 4.2.6.8 and 6.1.1.4'
 'O' 'O' 0.0250 0.0140 'International Tables Vol C Tables 4.2.6.8 and 6.1.1.4'

_shelx_space_group_comment
;
The symmetry employed for this shelxl refinement is uniquely defined
by the following loop, which should always be used as a source of
symmetry information in preference to the above space-group names.
They are only intended as comments.
;
_space_group_crystal_system       'tetragonal'
_space_group_IT_number            88
_space_group_name_H-M_alt         'I 41/a'
_space_group_name_Hall            '-I 4ad'
loop_
  _space_group_symop_operation_xyz
 'x, y, z'
 '-y+3/4, x+1/4, z+1/4'
 '-x, -y+1/2, z'
 'y+1/4, -x+1/4, z+1/4'
 'x+1/2, y+1/2, z+1/2'
 '-y+5/4, x+3/4, z+3/4'
 '-x+1/2, -y+1, z+1/2'
 'y+3/4, -x+3/4, z+3/4'
 '-x, -y, -z'
 'y-3/4, -x-1/4, -z-1/4'
 'x, y-1/2, -z'
 '-y-1/4, x-1/4, -z-1/4'
 '-x+1/2, -y+1/2, -z+1/2'
 'y-1/4, -x+1/4, -z+1/4'
 'x+1/2, y, -z+1/2'
 '-y+1/4, x+1/4, -z+1/4'

_cell_length_a                    19.6394(9)
_cell_length_b                    19.6394(9)
_cell_length_c                    8.9062(4)
_cell_angle_alpha                 90
_cell_angle_beta                  90
_cell_angle_gamma                 90
_cell_volume                      3435.2(4)
_cell_formula_units_Z             2
_cell_measurement_temperature     100(2)
_cell_measurement_reflns_used     3373
_cell_measurement_theta_max       38.51
_cell_measurement_theta_min       3.02

_exptl_crystal_description        'needle'
_exptl_crystal_colour             'yellow'
_exptl_crystal_density_meas       ?
_exptl_crystal_density_method     ?
_exptl_crystal_density_diffrn     1.254
_exptl_crystal_F_000              1368
_exptl_crystal_size_max           0.06
_exptl_crystal_size_mid           0.01
_exptl_crystal_size_min           0.01
_exptl_absorpt_coefficient_mu     0.200
_shelx_estimated_absorpt_T_max    ?
_shelx_estimated_absorpt_T_min    ?
_exptl_absorpt_correction_type    'multi-scan'
_exptl_absorpt_correction_T_max   0.7476
_exptl_absorpt_correction_T_min   0.6009

_exptl_absorpt_process_details
;
SADABS-2016/2 (Bruker,2016/2) was used for absorption correction.
wR2(int) was 0.0843 before and 0.0649 after correction.
The Ratio of minimum to maximum transmission is 0.8038.
The \l/2 correction factor is Not present.
;
_diffrn_ambient_temperature       100(2)
_diffrn_radiation_wavelength      1.0332
_diffrn_radiation_type            synchrotron
_diffrn_source                    
;
Advanced Light Source, station 11.3.1
;                       
_diffrn_radiation_monochromator	   'silicon 111'
_diffrn_measurement_device_type   'Bruker D8 with PHOTON 100 detector' 
_diffrn_measurement_method        '\f and \w shutterless scans'
_diffrn_detector_area_resol_mean  10.42

_diffrn_reflns_number             9358
_diffrn_reflns_av_unetI/netI      0.0599
_diffrn_reflns_av_R_equivalents   0.0687
_diffrn_reflns_limit_h_max        23
_diffrn_reflns_limit_h_min        -22
_diffrn_reflns_limit_k_max        23
_diffrn_reflns_limit_k_min        -17
_diffrn_reflns_limit_l_max        10
_diffrn_reflns_limit_l_min        -10
_diffrn_reflns_theta_full         38.310
_diffrn_reflns_theta_max          38.508
_diffrn_reflns_theta_min          3.016
_diffrn_measured_fraction_theta_full 0.996
_diffrn_measured_fraction_theta_max 0.994
_diffrn_reflns_Laue_measured_fraction_full 0.996
_diffrn_reflns_Laue_measured_fraction_max 0.994
_diffrn_reflns_point_group_measured_fraction_full 0.996
_diffrn_reflns_point_group_measured_fraction_max 0.994
_reflns_number_total              1569
_reflns_number_gt                 960

_reflns_threshold_expression      'I > 2\s(I)'

_reflns_Friedel_coverage          0.000
_reflns_Friedel_fraction_full     .
_reflns_Friedel_fraction_max      .


_reflns_special_details
;
 Reflections were merged by SHELXL according to the crystal
 class for the calculation of statistics and refinement.
 
 _reflns_Friedel_fraction is defined as the number of unique
 Friedel pairs measured divided by the number that would be
 possible theoretically, ignoring centric projections and
 systematic absences.
;
_computing_cell_refinement        'SAINT V8.34A Bruker-AXS, Madison WI'
_computing_data_collection        'Bruker APEX2 Bruker-AXS, Madison WI'
_computing_data_reduction         'SAINT V8.34A Bruker-AXS, Madison WI'
_computing_molecular_graphics     'Olex2 (Dolomanov et al., 2009)'
_computing_publication_material   'Olex2 (Dolomanov et al., 2009)'
_computing_structure_solution     'SHELXS-2014/7 (Sheldrick, 2015)'
_computing_structure_refinement   'SHELXL-2014/7 (Sheldrick, 2015)'

_refine_diff_density_max          0.286
_refine_diff_density_min          -0.346
_refine_diff_density_rms          0.062

_refine_ls_extinction_coef        .
_refine_ls_extinction_method      none
_refine_ls_goodness_of_fit_ref    1.101
_refine_ls_hydrogen_treatment     constr
_refine_ls_matrix_type            full
_refine_ls_number_parameters      114
_refine_ls_number_reflns          1560
_refine_ls_number_restraints      0
_refine_ls_R_factor_all           0.1424
_refine_ls_R_factor_gt            0.0903
_refine_ls_restrained_S_all       1.101
_refine_ls_shift/su_max           0.000
_refine_ls_shift/su_mean          0.000
_refine_ls_structure_factor_coef  Fsqd
_refine_ls_weighting_details
'w=1/[\s^2^(Fo^2^)+(0.1140P)^2^+9.5510P] where P=(Fo^2^+2Fc^2^)/3'
_refine_ls_weighting_scheme       calc
_refine_ls_wR_factor_gt           0.2323
_refine_ls_wR_factor_ref          0.2617
_refine_special_details           ?
_olex2_refinement_description
;
1. Fixed Uiso
 At 1.2 times of:
  All C(H) groups
 At 1.5 times of:
  All O(H,H) groups
2.a Free rotating group:
 O1(H1A,H1B)
2.b Aromatic/amide H refined with riding coordinates:
 C5(H5), C6(H6), C8(H8), C9(H9), C10(H10), C13(H13), C2(H2)
;
_atom_sites_solution_hydrogens    mixed
_atom_sites_solution_primary      direct
_atom_sites_solution_secondary    difmap
loop_
  _atom_site_label
  _atom_site_type_symbol
  _atom_site_fract_x
  _atom_site_fract_y
  _atom_site_fract_z
  _atom_site_U_iso_or_equiv
  _atom_site_adp_type
  _atom_site_occupancy
  _atom_site_site_symmetry_order
  _atom_site_calc_flag
  _atom_site_refinement_flags_posn
  _atom_site_refinement_flags_adp
  _atom_site_refinement_flags_occupancy
  _atom_site_disorder_assembly
  _atom_site_disorder_group
 C1 C 0.5000 0.2500 1.3750 0.0282(17) Uani 1 4 d S T P . .
 C3 C 0.5083(2) 0.31030(19) 1.2654(3) 0.0301(10) Uani 1 1 d . . . . .
 C4 C 0.5258(2) 0.3953(2) 1.0158(4) 0.0400(11) Uani 1 1 d . . . . .
 C5 C 0.5789(2) 0.3829(2) 1.1123(4) 0.0402(11) Uani 1 1 d . . . . .
 H5 H 0.6219 0.4035 1.0941 0.048 Uiso 1 1 calc R . . . .
 C6 C 0.5709(2) 0.3407(2) 1.2362(4) 0.0363(10) Uani 1 1 d . . . . .
 H6 H 0.6083 0.3325 1.3013 0.044 Uiso 1 1 calc R . . . .
 C8 C 0.4622(2) 0.3674(2) 1.0479(4) 0.0429(11) Uani 1 1 d . . . . .
 H8 H 0.4244 0.3773 0.9850 0.052 Uiso 1 1 calc R . . . .
 C9 C 0.4540(2) 0.3256(2) 1.1707(4) 0.0366(10) Uani 1 1 d . . . . .
 H9 H 0.4104 0.3068 1.1911 0.044 Uiso 1 1 calc R . . . .
 C10 C 0.4382(3) 0.4999(2) 0.5753(5) 0.0603(15) Uani 1 1 d . . . . .
 H10 H 0.3960 0.4996 0.6272 0.072 Uiso 1 1 calc R . . . .
 C11 C 0.4974(3) 0.4809(2) 0.6497(5) 0.0535(14) Uani 1 1 d . . . . .
 C13 C 0.5595(3) 0.4804(2) 0.5752(5) 0.0589(15) Uani 1 1 d . . . . .
 H13 H 0.5998 0.4670 0.6259 0.071 Uiso 1 1 calc R . . . .
 C2 C 0.4900(3) 0.4546(2) 0.8053(5) 0.0555(14) Uani 1 1 d . . . . .
 H2 H 0.4463 0.4554 0.8508 0.067 Uiso 1 1 calc R . . . .
 N1 N 0.5400(2) 0.43121(19) 0.8800(4) 0.0503(11) Uani 1 1 d . . . . .
 O1 O 0.6928(3) 0.4674(2) 0.8682(5) 0.0939(16) Uani 1 1 d . . . . .
 H1A H 0.6586 0.4926 0.8868 0.141 Uiso 1 1 d G . . . .
 H1B H 0.7250 0.4951 0.8506 0.141 Uiso 1 1 d G . . . .

loop_
  _atom_site_aniso_label
  _atom_site_aniso_U_11
  _atom_site_aniso_U_22
  _atom_site_aniso_U_33
  _atom_site_aniso_U_23
  _atom_site_aniso_U_13
  _atom_site_aniso_U_12
 C1 0.037(3) 0.037(3) 0.010(3) 0.000 0.000 0.000
 C3 0.042(2) 0.036(2) 0.0115(16) -0.0022(15) 0.0009(15) 0.0026(18)
 C4 0.066(3) 0.036(2) 0.0184(18) 0.0018(16) 0.0030(19) -0.001(2)
 C5 0.049(3) 0.042(3) 0.030(2) 0.0011(18) 0.0074(19) -0.008(2)
 C6 0.045(3) 0.044(2) 0.0198(18) 0.0026(16) 0.0024(17) -0.0028(19)
 C8 0.055(3) 0.048(3) 0.025(2) 0.0031(18) -0.0070(19) 0.008(2)
 C9 0.043(2) 0.044(3) 0.0233(19) 0.0051(17) -0.0017(17) 0.0011(19)
 C10 0.111(5) 0.040(3) 0.030(2) 0.005(2) 0.002(3) -0.003(3)
 C11 0.103(4) 0.035(3) 0.023(2) 0.0014(18) -0.002(2) 0.000(3)
 C13 0.104(4) 0.044(3) 0.029(2) 0.004(2) -0.003(3) 0.000(3)
 C2 0.100(4) 0.040(3) 0.027(2) 0.0006(19) 0.003(2) -0.007(3)
 N1 0.088(3) 0.044(2) 0.0192(17) 0.0060(15) 0.0023(18) -0.002(2)
 O1 0.102(4) 0.120(4) 0.060(3) 0.003(3) 0.018(3) -0.011(3)

_geom_special_details
;
 All esds (except the esd in the dihedral angle between two l.s. planes)
 are estimated using the full covariance matrix.  The cell esds are taken
 into account individually in the estimation of esds in distances, angles
 and torsion angles; correlations between esds in cell parameters are only
 used when they are defined by crystal symmetry.  An approximate (isotropic)
 treatment of cell esds is used for estimating esds involving l.s. planes.
;
loop_
  _geom_bond_atom_site_label_1
  _geom_bond_atom_site_label_2
  _geom_bond_distance
  _geom_bond_site_symmetry_2
  _geom_bond_publ_flag
 C1 C3 1.543(4) . ?
 C1 C3 1.543(4) 10_668 ?
 C1 C3 1.543(4) 3_655 ?
 C1 C3 1.543(4) 12_658 ?
 C3 C6 1.390(5) . ?
 C3 C9 1.393(5) . ?
 C4 C5 1.375(6) . ?
 C4 C8 1.394(6) . ?
 C4 N1 1.428(5) . ?
 C5 C6 1.389(5) . ?
 C8 C9 1.377(6) . ?
 C10 C11 1.388(8) . ?
 C10 C13 1.395(6) 9_666 ?
 C11 C13 1.388(7) . ?
 C11 C2 1.486(6) . ?
 C13 C10 1.395(6) 9_666 ?
 C2 N1 1.272(6) . ?

loop_
  _geom_angle_atom_site_label_1
  _geom_angle_atom_site_label_2
  _geom_angle_atom_site_label_3
  _geom_angle
  _geom_angle_site_symmetry_1
  _geom_angle_site_symmetry_3
  _geom_angle_publ_flag
 C3 C1 C3 101.5(3) . 3_655 ?
 C3 C1 C3 113.57(14) 3_655 12_658 ?
 C3 C1 C3 113.58(13) . 12_658 ?
 C3 C1 C3 113.58(14) . 10_668 ?
 C3 C1 C3 113.58(13) 3_655 10_668 ?
 C3 C1 C3 101.5(3) 10_668 12_658 ?
 C6 C3 C1 122.8(3) . . ?
 C6 C3 C9 118.1(3) . . ?
 C9 C3 C1 117.9(3) . . ?
 C5 C4 C8 118.9(4) . . ?
 C5 C4 N1 118.0(4) . . ?
 C8 C4 N1 122.9(4) . . ?
 C4 C5 C6 121.0(4) . . ?
 C5 C6 C3 120.4(4) . . ?
 C9 C8 C4 120.1(4) . . ?
 C8 C9 C3 121.4(4) . . ?
 C11 C10 C13 120.4(5) . 9_666 ?
 C10 C11 C13 120.6(4) . . ?
 C10 C11 C2 117.2(5) . . ?
 C13 C11 C2 121.9(5) . . ?
 C11 C13 C10 119.1(5) . 9_666 ?
 N1 C2 C11 122.6(5) . . ?
 C2 N1 C4 118.1(4) . . ?

_shelx_res_file
;
    ek_300_ar_100k_04_0m.res created by SHELXL-2014/7

TITL ek_300_ar_100k_04_0m in I41/a #88
REM reset to I41/a #88
CELL 1.0332 19.6394 19.6394 8.9062 90 90 90
ZERR 2 0.0009 0.0009 0.0004 0 0 0
LATT 2
SYMM 0.75-Y,0.25+X,0.25+Z
SYMM -X,0.5-Y,+Z
SYMM 0.25+Y,0.25-X,0.25+Z
SFAC C H N O
DISP C 0.009 0.004 30.879
DISP H -0 0 0.639
DISP N 0.015 0.008 57.854
DISP O 0.025 0.014 100.516
UNIT 164 144 16 16

L.S. 10
PLAN  20
TEMP -173.15
BOND
acta
fmap 2
REM <olex2.extras>
REM <HklSrc "%.\\ek_300_ar_100k_04_0m.hkl">
REM </olex2.extras>

WGHT    0.114000    9.551003
FVAR       0.12248
C1    1    0.500000    0.250000    1.375000    10.25000    0.03742    0.03742 =
         0.00965    0.00000    0.00000    0.00000
C3    1    0.508299    0.310300    1.265415    11.00000    0.04233    0.03637 =
         0.01152   -0.00223    0.00091    0.00255
C4    1    0.525771    0.395269    1.015753    11.00000    0.06595    0.03551 =
         0.01839    0.00183    0.00304   -0.00086
C5    1    0.578944    0.382875    1.112332    11.00000    0.04943    0.04164 =
         0.02964    0.00107    0.00741   -0.00843
AFIX  43
H5    2    0.621903    0.403510    1.094078    11.00000   -1.20000
AFIX   0
C6    1    0.570861    0.340668    1.236162    11.00000    0.04510    0.04409 =
         0.01976    0.00257    0.00242   -0.00276
AFIX  43
H6    2    0.608297    0.332496    1.301266    11.00000   -1.20000
AFIX   0
C8    1    0.462155    0.367406    1.047916    11.00000    0.05545    0.04828 =
         0.02505    0.00306   -0.00703    0.00838
AFIX  43
H8    2    0.424353    0.377289    0.985032    11.00000   -1.20000
AFIX   0
C9    1    0.454005    0.325587    1.170656    11.00000    0.04256    0.04387 =
         0.02327    0.00514   -0.00165    0.00110
AFIX  43
H9    2    0.410426    0.306760    1.191146    11.00000   -1.20000
AFIX   0
C10   1    0.438249    0.499926    0.575304    11.00000    0.11110    0.03955 =
         0.03010    0.00532    0.00222   -0.00293
AFIX  43
H10   2    0.395980    0.499607    0.627163    11.00000   -1.20000
AFIX   0
C11   1    0.497352    0.480855    0.649656    11.00000    0.10330    0.03471 =
         0.02256    0.00135   -0.00150   -0.00019
C13   1    0.559452    0.480433    0.575168    11.00000    0.10405    0.04375 =
         0.02893    0.00389   -0.00275    0.00008
AFIX  43
H13   2    0.599806    0.466964    0.625934    11.00000   -1.20000
AFIX   0
C2    1    0.490017    0.454639    0.805274    11.00000    0.10000    0.03985 =
         0.02651    0.00058    0.00345   -0.00683
AFIX  43
H2    2    0.446277    0.455403    0.850794    11.00000   -1.20000
AFIX   0
N1    3    0.539999    0.431209    0.879966    11.00000    0.08805    0.04358 =
         0.01922    0.00599    0.00226   -0.00166
AFIX   6
O1    4    0.692786    0.467350    0.868225    11.00000    0.10200    0.12028 =
         0.05953    0.00274    0.01785   -0.01128
H1A   2    0.658648    0.492634    0.886797    11.00000   -1.50000
H1B   2    0.725027    0.495097    0.850638    11.00000   -1.50000
AFIX   0
HKLF 4

REM  ek_300_ar_100k_04_0m in I41/a #88
REM R1 =  0.0903 for     960 Fo > 4sig(Fo)  and  0.1424 for all    1560 data
REM    114 parameters refined using      0 restraints

END

WGHT      0.1134      9.5963

REM Highest difference peak  0.286,  deepest hole -0.346,  1-sigma level  0.062
Q1    1   0.6187  0.4512  0.8709  11.00000  0.05    0.29
Q2    1   0.5275  0.3460  1.2597  11.00000  0.05    0.25
Q3    1   0.5390  0.4107  1.1221  11.00000  0.05    0.25
Q4    1   0.7085  0.5074  0.9694  11.00000  0.05    0.25
Q5    1   0.5005  0.2916  1.3182  11.00000  0.05    0.25
Q6    1   0.4986  0.3591  1.0058  11.00000  0.05    0.24
Q7    1   0.5476  0.3092  1.2422  11.00000  0.05    0.24
Q8    1   0.7637  0.4981  0.8647  11.00000  0.05    0.22
Q9    1   0.6022  0.4543  0.8813  11.00000  0.05    0.21
Q10   1   0.5912  0.4355  0.8100  11.00000  0.05    0.21
Q11   1   0.4400  0.4492  0.8166  11.00000  0.05    0.20
Q12   1   0.4893  0.4105  0.8691  11.00000  0.05    0.19
Q13   1   0.4897  0.4065  1.0355  11.00000  0.05    0.18
Q14   1   0.5013  0.5160  0.5923  11.00000  0.05    0.18
Q15   1   0.6901  0.5463  0.8786  11.00000  0.05    0.18
Q16   1   0.4626  0.3253  1.2262  11.00000  0.05    0.18
Q17   1   0.5203  0.4553  0.5946  11.00000  0.05    0.18
Q18   1   0.6208  0.4612  0.5983  11.00000  0.05    0.17
Q19   1   0.5017  0.4644  0.5600  11.00000  0.05    0.16
Q20   1   0.5508  0.4689  0.8260  11.00000  0.05    0.16

;
_shelx_res_checksum               94499
_shelx_hkl_file
;
   1  -1   0   -0.32    0.81
  -1  -1   0   -0.02    0.87
   0   2   0  432.43   18.86
   2   0   0  433.39   18.82
   0  -2   0  439.53   18.86
  -2  -2   0  161.66    6.95
  -2   2   0  144.35    6.77
   2  -2   0  160.02    7.12
  -2   2   0  161.51    7.12
   1  -3   0   -0.05    0.17
  -1   3   0   -0.51    0.30
   1  -3   0   -0.92    0.91
   3   1   0   -0.11    0.73
  -1   3   0    0.16    0.95
  -3  -1   0    0.46    0.64
   3   1   0   -0.05    0.30
  -3   1   0   -0.06    0.89
   3  -1   0    1.35    0.89
  -1  -3   0    0.23    0.80
   1   3   0   -0.32    0.26
   1   3   0    0.01    0.80
  -3   1   0    0.72    0.27
   3   3   0   -0.47    0.35
   3  -3   0    0.32    0.27
   3   3   0    0.07    0.27
  -3   3   0   -0.32    0.37
  -3   3   0    1.84    1.39
  -3  -3   0   -0.33    0.83
  -3  -3   0   -0.48    0.85
  -2   4   0  632.24   26.27
  -4  -2   0  597.91   26.04
   2  -4   0  600.31   26.25
   4   2   0  570.10   26.01
   4   0   0  678.29   29.90
  -4   0   0  671.38   29.90
   0   4   0  705.82   29.98
   0  -4   0  703.40   29.98
  -4   2   0   10.09    0.70
   4  -2   0    7.21    1.91
  -4   2   0    9.65    1.91
   4  -2   0    9.86    0.64
   2   4   0    6.31    1.51
  -2  -4   0    6.27    1.21
  -4  -4   0   40.28    2.42
  -4  -4   0   40.07    2.42
  -4   4   0   36.06    1.76
   4   4   0   34.92    1.67
   4   4   0   34.53    1.74
   4  -4   0   34.86    1.68
   4  -4   0   41.32    3.00
  -4   4   0   33.35    2.94
   5   3   0    0.15    0.33
   3  -5   0   -0.05    0.27
  -3   5   0   -0.76    0.43
   3  -5   0    0.56    1.36
   5   3   0    0.26    0.46
  -3   5   0    1.74    1.54
  -5  -3   0    1.30    1.07
   5   3   0   -0.89    0.93
   5   1   0   -0.73    0.96
   5   1   0    1.18    0.49
   1  -5   0    1.38    1.33
  -5  -1   0    1.39    1.05
  -1   5   0    2.21    1.50
   1   5   0   -1.63    1.16
   1   5   0   -0.29    0.37
  -5   1   0    1.27    1.18
  -1  -5   0   -0.51    1.13
   5  -1   0   -0.77    1.05
  -3  -5   0    0.47    1.10
   5  -3   0   -0.10    1.35
   5  -3   0    0.97    0.37
   3   5   0   -0.21    0.35
  -5   3   0    1.49    1.47
  -5   3   0    0.43    0.43
   3   5   0   -1.25    1.01
  -5   5   0   -1.39    1.50
   5   5   0   -0.12    0.44
  -5   5   0   -0.57    0.43
  -5  -5   0   -0.15    1.07
   5  -5   0    0.03    0.33
  -5  -5   0   -0.26    1.06
   5   5   0    0.00    0.34
   5  -5   0   -0.15    1.44
  -4   6   0   97.56    4.44
   6   4   0   98.35    4.39
   4  -6   0   95.10    4.37
  -6  -4   0  108.94    4.99
  -4   6   0  102.99    5.47
   6   4   0   95.22    4.44
  -6  -4   0  106.50    5.03
   4  -6   0  100.85    5.44
   2  -6   0   89.13    4.93
  -6  -2   0   95.13    4.56
  -2   6   0   90.24    4.95
   6   2   0   92.36    4.53
   2  -6   0   85.40    3.90
  -6  -2   0   88.58    3.93
   0   6   0  169.53    7.64
   6   0   0  163.54    7.65
   0   6   0  181.21    8.33
   0  -6   0  185.42    8.30
   6   0   0  183.76    8.18
  -6   0   0  163.86    7.62
  -6   0   0  188.46    8.20
  -6   2   0   66.34    2.98
   6  -2   0   62.43    2.97
   2   6   0   65.41    2.97
   2   6   0   67.84    3.77
  -2  -6   0   65.45    3.75
  -6   2   0   71.31    3.87
   6  -2   0   68.43    3.88
   4   6   0    1.50    0.39
  -4  -6   0    1.70    1.22
   6  -4   0    1.89    1.56
   4   6   0    1.27    0.41
  -6   4   0    0.86    1.64
   4   6   0    2.61    1.12
  -6   4   0    0.91    0.47
   6  -4   0    1.51    0.40
   6  -6   0   50.79    2.42
  -6  -6   0   55.90    3.31
   6   6   0   53.76    2.51
  -6   6   0   51.87    3.87
  -6  -6   0   56.52    3.28
   6   6   0   54.35    2.42
  -6   6   0   52.12    2.50
   6  -6   0   52.65    3.89
   7   5   0   -0.07    0.51
  -7  -5   0    0.35    1.13
   5  -7   0    0.12    0.33
  -7  -5   0    0.02    1.19
  -5   7   0   -0.47    0.52
   7   5   0   -0.03    0.38
   3  -7   0    0.66    1.66
   3  -7   0    0.18    0.27
   7   3   0    0.35    0.50
  -7  -3   0   -0.06    0.33
   7   3   0   -0.26    1.02
  -7  -3   0    0.06    1.12
  -3   7   0   -0.28    1.56
  -3   7   0   -0.75    0.52
   7   1   0    0.84    0.50
  -7  -1   0    0.61    1.13
  -1   7   0   -0.10    0.47
  -1   7   0   -0.71    1.47
  -7  -1   0    0.16    0.34
   1  -7   0   -0.10    0.26
   1  -7   0    0.22    1.33
   7   1   0   -0.14    1.10
   7  -1   0   -0.49    1.20
  -7   1   0    0.24    0.39
   1   7   0   -0.04    0.42
   1   7   0   -1.20    1.34
  -7   1   0    0.26    1.33
   7  -1   0    1.09    0.46
  -1  -7   0    0.66    1.30
  -7   3   0    0.33    1.41
   7  -3   0    0.31    0.57
   7  -3   0   -0.25    1.37
   3   7   0    0.29    0.42
  -7   3   0    0.42    0.47
   3   7   0   -0.43    1.20
  -3  -7   0   -1.45    1.18
   7  -5   0   -0.53    1.62
   5   7   0    0.02    0.47
  -7   5   0   -0.47    0.50
  -7   5   0    0.51    1.57
   7  -5   0    0.27    0.42
   5   7   0   -0.25    0.40
  -5  -7   0   -0.01    1.24
  -7  -7   0   -0.93    1.20
  -7  -7   0    0.78    1.19
   7  -7   0   -0.58    1.95
   7  -7   0   -0.04    0.40
  -7   7   0   -0.19    1.71
  -7   7   0   -0.98    0.59
   7   7   0    0.39    0.54
   7   7   0    0.10    0.40
  -8  -6   0   -0.90    1.20
   6  -8   0    0.07    0.36
  -8  -6   0   -0.89    1.24
  -6   8   0   -1.15    0.55
   6  -8   0   -1.33    1.71
  -6   8   0   -0.36    1.73
   8   6   0    0.47    0.57
   8   6   0    0.16    0.40
  -4   8   0   43.80    2.20
   4  -8   0   44.70    3.61
   4  -8   0   42.49    2.04
  -4   8   0   43.63    3.66
   8   4   0   47.48    2.98
  -8  -4   0   50.42    3.12
   8   4   0   48.01    2.26
  -8  -4   0   45.21    2.08
  -2   8   0   32.74    3.07
   8   2   0   34.16    2.62
  -2   8   0   31.94    1.68
  -8  -2   0   32.45    1.54
   8   2   0   34.33    1.73
   2  -8   0   31.00    1.49
  -8  -2   0   33.63    2.56
   2  -8   0   31.64    3.07
  -8   0   0   23.86    2.49
   0   8   0   24.81    2.66
   0  -8   0   22.89    2.60
   8   0   0   26.54    1.43
  -8   0   0   23.19    1.23
   0   8   0   23.99    1.34
   8   0   0   24.87    2.43
  -8   2   0   18.31    2.49
  -8   2   0   18.65    1.09
   2   8   0   17.06    1.08
  -2  -8   0   19.72    2.43
   8  -2   0   19.36    1.15
   8  -2   0   19.36    2.44
   2   8   0   16.83    2.40
  -8   4   0   73.97    3.26
   8  -4   0   71.98    4.49
   4   8   0   72.87    4.08
   4   8   0   68.16    3.21
  -4  -8   0   71.38    4.18
   8  -4   0   70.37    3.22
   4   8   0   73.41    3.21
  -8   4   0   70.08    4.48
   8  -6   0    0.09    0.46
  -8   6   0   -0.19    1.68
  -6  -8   0    0.06    1.33
   6   8   0    0.27    0.55
   6   8   0    0.39    0.42
   8  -6   0    1.02    1.62
  -6  -8   0    1.35    1.35
  -8   6   0   -0.36    0.57
  -8   8   0   32.42    1.85
  -8  -8   0   34.76    3.02
   8   8   0   35.99    1.86
   8   8   0   35.30    1.72
  -8   8   0   32.37    3.47
  -8  -8   0   36.87    2.97
   8  -8   0   33.93    3.53
   8  -8   0   35.51    1.72
   7  -9   0    0.50    0.39
   7  -9   0    1.34    2.02
   9   7   0   -0.51    0.44
   9   7   0    0.89    0.63
  -7   9   0   -0.69    0.61
  -7   9   0    0.17    1.84
  -9  -7   0    1.03    1.36
  -9  -7   0    1.07    1.42
  -9  -5   0   -0.85    1.23
   5  -9   0   -0.08    0.31
  -5   9   0   -1.12    0.54
  -9  -5   0   -0.45    1.31
  -9  -5   0    0.27    0.37
   5  -9   0   -0.59    1.71
  -5   9   0    0.13    1.74
   9   5   0    1.16    0.62
  -9  -3   0    0.27    0.38
  -3   9   0   -0.81    0.55
  -9  -3   0   -1.07    1.23
   9   3   0    0.95    1.19
   3  -9   0    0.74    1.71
  -3   9   0    0.43    1.69
   3  -9   0    0.07    0.27
  -9  -1   0    0.58    1.33
  -1   9   0   -0.72    0.50
   9   1   0   -0.10    1.26
  -1   9   0   -0.04    1.82
   1  -9   0   -0.07    1.83
   1   9   0    0.04    0.51
  -9   1   0   -1.42    1.33
   9  -1   0   -0.05    1.28
   1   9   0    0.64    1.57
  -1  -9   0   -1.20    1.33
  -9   1   0    0.50    0.46
  -9   3   0   -0.51    1.57
  -3  -9   0    0.21    1.38
   9  -3   0   -0.60    1.46
   3   9   0   -0.09    0.47
   9  -3   0    0.72    0.52
   3   9   0   -0.76    1.34
  -9   3   0    0.58    0.53
   9  -5   0    0.02    1.59
   5   9   0   -0.08    0.45
  -9   5   0   -0.43    0.58
   5   9   0    0.18    0.49
  -9   5   0   -0.14    1.66
  -5  -9   0   -0.17    1.38
   5   9   0   -0.32    1.21
   9  -5   0    0.05    0.51
   9  -7   0   -0.18    0.49
  -7  -9   0    3.40    1.51
  -9   7   0    2.12    1.79
   9  -7   0   -1.87    1.92
   7   9   0   -0.08    0.45
  -9   7   0    0.11    0.59
  -7  -9   0   -0.38    1.38
   7   9   0    0.10    0.57
   9   9   0    0.66    0.69
  -9   9   0   -0.17    1.95
  -9  -9   0    1.14    1.56
  -9  -9   0    0.33    1.59
  -9   9   0   -0.58    0.62
   9  -9   0    0.89    1.78
   9  -9   0   -0.17    0.49
   9   9   0    0.32    0.53
   8 -10   0   68.08    5.29
  -8  10   0   83.60    3.74
  10   8   0   88.65    3.81
 -10  -8   0   78.82    4.92
 -10  -8   0   81.46    4.78
   8 -10   0   85.87    3.72
  -8  10   0   75.85    5.16
  10   6   0    1.16    0.72
  -6  10   0   -0.46    1.74
 -10  -6   0    0.64    0.40
 -10  -6   0   -0.36    1.35
   6 -10   0    0.18    0.35
  -6  10   0   -0.57    0.59
 -10  -6   0   -0.74    1.41
   6 -10   0   -0.57    1.72
  10   4   0   11.22    2.19
  -4  10   0   11.13    2.70
 -10  -4   0   12.56    2.35
   4 -10   0   12.48    2.37
 -10  -4   0   10.89    1.13
  -4  10   0   10.61    1.07
   4 -10   0   11.55    0.69
 -10  -2   0    2.81    0.59
 -10  -2   0    2.46    1.58
  -2  10   0    2.02    0.59
  -2  10   0    3.77    1.80
   2 -10   0    3.53    1.70
  10   2   0    3.56    1.53
   0  10   0    1.94    0.59
 -10   0   0    2.21    0.49
  10   0   0    2.18    1.48
 -10   0   0    3.86    1.69
   0 -10   0    1.47    1.65
   0  10   0    1.08    1.62
   2  10   0   51.96    2.37
 -10   2   0   49.70    3.76
   2  10   0   39.67    4.45
  10  -2   0   46.78    3.59
  10  -2   0   52.35    2.39
 -10   2   0   51.55    2.35
  10  -4   0   19.16    1.21
 -10   4   0   18.40    2.83
   4  10   0   16.42    1.13
  10  -4   0   17.05    2.74
 -10   4   0   17.90    1.20
   4  10   0   16.64    2.47
   4  10   0   17.58    1.10
  -4 -10   0   16.92    2.58
 -10   6   0    2.53    0.63
   6  10   0    3.06    0.58
  -6 -10   0    3.87    1.62
   6  10   0    4.18    0.59
  10  -6   0    3.72    1.83
  10  -6   0    4.35    0.63
 -10   6   0    3.72    2.04
   8  10   0   34.97    1.75
 -10   8   0   35.17    1.89
  10  -8   0   28.34    3.54
   8  10   0   34.43    1.85
 -10   8   0   33.62    3.62
  -8 -10   0   33.86    3.34
  10  -8   0   37.11    1.81
  -8 -10   0   25.52    3.19
  10  10   0    0.10    0.74
 -10 -10   0   -0.11    1.93
 -10 -10   0    2.15    2.13
  10  10   0   -0.59    0.57
  10 -10   0    0.49    0.59
 -10  10   0    7.30    2.88
 -10  10   0   -0.50    0.75
  10 -10   0   -3.35    2.51
 -11  -9   0    3.26    1.75
  11   9   0    0.35    0.89
 -11  -9   0    2.76    1.86
 -11  -7   0    1.15    1.54
 -11  -7   0    2.64    1.56
  -7  11   0   -2.75    1.92
 -11  -7   0    1.16    0.44
   7 -11   0   -0.61    1.94
  11   7   0    0.79    0.84
  -7  11   0   -0.33    0.71
 -11  -5   0   -0.31    1.45
 -11  -5   0    0.48    0.43
  -5  11   0   -0.58    0.62
   5 -11   0    0.57    0.33
  11   5   0    1.57    0.85
  -5  11   0    2.32    1.85
 -11  -3   0   -0.46    0.41
  -3  11   0   -0.61    1.78
  11   3   0   -0.07    1.37
 -11  -3   0    0.44    1.41
  -3  11   0   -0.74    0.62
   3 -11   0    0.00    1.68
  11   1   0    0.43    1.48
 -11  -1   0    0.20    1.65
 -11  -1   0   -0.17    0.44
  -1  11   0   -1.41    1.80
  -1  11   0   -0.35    0.60
   1 -11   0    1.04    1.72
   1  11   0   -0.11    0.54
  11  -1   0    0.39    2.62
   1  11   0    0.53    1.63
  11  -1   0    1.82    0.64
  -1 -11   0    0.19    1.49
 -11   1   0    0.04    0.50
  -3 -11   0    0.00    1.63
  11  -3   0    0.73    0.57
 -11   3   0   -0.44    0.54
 -11   3   0   -0.83    1.65
  11  -3   0    0.12    1.53
   3  11   0    0.50    0.43
   3  11   0    0.61    1.48
   3  11   0   -0.18    0.55
 -11   5   0    0.24    1.77
   5  11   0   -1.57    1.35
  11  -5   0    0.51    1.59
  11  -5   0   -0.19    0.60
   5  11   0   -0.11    0.51
   5  11   0    0.16    0.51
  -5 -11   0    1.94    1.54
 -11   5   0   -0.38    0.57
   7  11   0    0.30    0.56
 -11   7   0   -0.21    0.66
  -7 -11   0   -3.24    1.76
 -11   7   0    5.06    2.03
  11  -7   0   -0.25    0.60
  -7 -11   0    0.52    1.61
   7  11   0    0.02    0.60
  11  -7   0   -1.16    1.77
  -9 -11   0    3.87    1.82
  11  -9   0   -0.98    2.04
 -11   9   0    3.03    2.12
  11  11   0    0.40    0.97
 -11  11   0    0.47    0.79
 -10  12   0    9.72    1.33
  12   8   0   10.70    1.56
 -12  -8   0    8.59    2.06
 -12  -8   0    8.18    2.24
  -8  12   0    6.92    1.35
 -12  -6   0   32.91    1.76
 -12  -6   0   37.09    3.24
 -12  -6   0   35.08    3.40
  -6  12   0   31.68    1.91
  12   6   0   40.70    2.24
  -6  12   0   37.15    3.85
 -12  -4   0   -1.21    1.51
  -4  12   0   -0.99    1.90
  12   4   0   -2.43    1.51
 -12  -4   0   -0.66    0.44
  12   4   0    1.66    0.86
   4 -12   0   -2.30    1.72
  -4  12   0   -0.38    0.66
   2 -12   0   -0.32    1.90
  -2  12   0    0.88    1.86
  12   2   0    1.30    0.72
 -12  -2   0   -1.15    1.72
 -12  -2   0   -0.15    0.47
  12   2   0    0.26    1.55
  -2  12   0   -0.36    0.63
  12   0   0    1.28    0.71
   0  12   0   -0.54    1.98
  12   0   0    1.22    1.63
   0  12   0    0.46    0.62
 -12   0   0   -0.61    0.54
   0 -12   0    0.68    1.77
 -12   0   0   -1.07    1.70
  12  -2   0   24.35    3.16
  12  -2   0   30.84    1.67
   2  12   0   28.61    3.08
   2  12   0   26.30    1.40
 -12   2   0   27.52    1.56
  -2 -12   0   26.06    3.19
   2  12   0   28.48    1.58
 -12   2   0   25.40    3.32
  12  -4   0    1.64    0.68
  -4 -12   0    0.12    1.68
 -12   4   0    1.23    0.64
   4  12   0    1.40    0.52
   4  12   0    1.23    0.57
   4  12   0    2.47    1.58
 -12   4   0    0.69    1.90
  12  -4   0    2.24    1.80
  -6 -12   0    2.10    1.79
  12  -6   0    1.00    0.69
 -12   6   0   -0.55    2.03
   6  12   0    1.38    0.61
 -12   6   0    0.79    0.71
   6  12   0    0.84    0.58
  12  -6   0    1.45    1.85
  12  -8   0    1.46    0.73
  -8 -12   0    4.80    2.06
   8  12   0    1.59    0.76
 -12   8   0    0.65    2.15
 -12   8   0    1.12    0.78
  12  -8   0   -2.49    2.20
   8  12   0    2.10    0.67
  10  12   0   13.21    1.58
 -12  10   0   12.45    1.43
  12 -10   0   15.64    1.40
  12  12   0    3.29    1.07
 -12  12   0    2.64    0.92
 -11  13   0   -0.84    0.83
  13  11   0    0.98    1.04
  13   9   0    1.53    1.02
  -9  13   0   -0.88    0.75
 -13  -7   0    2.36    1.95
 -13  -7   0    1.83    2.03
  13   5   0    2.14    0.89
  -5  13   0    2.35    2.03
 -13  -5   0   -2.36    1.68
  -5  13   0   -0.06    0.63
   5 -13   0   -3.12    2.11
  13   3   0    1.59    0.80
 -13  -3   0   -1.50    2.68
  13   3   0    2.39    1.98
  -3  13   0    0.87    1.90
   3 -13   0   -1.54    1.84
   1 -13   0   -1.60    1.86
 -13  -1   0   -1.72    1.79
  13   1   0    2.53    1.80
  -1  13   0    2.12    1.89
 -13  -1   0   -1.20    0.56
  13   1   0    1.30    0.76
  -1  13   0   -0.55    0.63
  -1 -13   0   -2.40    1.80
  13  -1   0   -1.84    1.79
  13  -1   0    0.36    0.68
 -13   1   0    0.39    1.97
   1  13   0   -1.18    1.73
 -13   1   0   -1.20    0.58
   1  13   0   -0.16    0.65
  13  -3   0    0.69    0.69
   3  13   0    1.20    1.58
 -13   3   0   -0.18    0.60
 -13   3   0    2.75    1.95
  13  -3   0   -0.01    1.73
   3  13   0    0.48    0.65
  -3 -13   0    0.16    1.77
   3  13   0    0.42    0.47
   5  13   0   -0.26    0.56
  13  -5   0    0.09    1.91
 -13   5   0    3.00    2.13
   5  13   0   -0.30    0.62
  13  -5   0    0.53    0.74
 -13   5   0    0.15    0.72
   5  13   0   -2.38    1.54
  13  -7   0   -0.41    2.22
   7  13   0    0.25    0.70
  -7 -13   0    0.65    2.15
   7  13   0   -1.55    0.69
 -13   7   0   -0.40    0.78
  13  -7   0   -0.42    0.75
   9  13   0    0.18    0.93
 -13   9   0   -0.21    0.84
  13  -9   0    0.19    0.83
 -13  11   0   -1.21    0.89
  11  13   0   -1.54    1.01
 -13  13   0   -0.61    0.97
 -12  14   0    0.60    0.94
  14  12   0    0.08    1.04
  14  10   0   11.00    1.73
 -10  14   0    5.86    0.97
  14   8   0    7.76    1.61
  -6  14   0   18.24    1.43
  14   4   0    7.63    2.35
 -14  -4   0    5.36    0.72
  -4  14   0    6.28    1.21
 -14  -2   0    1.37    0.68
   2 -14   0   -0.26    1.96
 -14  -2   0    1.82    2.10
  -2  14   0    2.94    0.72
  -2  14   0    4.09    2.16
  14   0   0   15.79    3.52
  14   0   0   26.71    1.63
   0 -14   0   14.01    3.27
 -14   0   0   19.69    1.41
   0  14   0   25.28    3.50
   0  14   0   23.39    1.51
 -14   0   0   14.81    2.81
  -2 -14   0   -0.04    2.11
  14  -2   0    5.41    2.07
   2  14   0    2.76    0.78
 -14   2   0   -2.40    2.13
   2  14   0    4.30    1.90
  14  -2   0    1.91    0.78
 -14   2   0    2.61    0.69
 -14   4   0   28.51    1.74
  -4 -14   0   26.65    3.57
  14  -4   0   31.62    1.88
  14  -4   0   25.75    3.58
   4  14   0   26.31    3.25
 -14   4   0   28.15    3.94
   4  14   0   27.95    1.73
  14  -6   0   11.95    1.42
   6  14   0    6.97    0.90
  14  -6   0    6.91    2.39
  -6 -14   0   17.70    3.24
   6  14   0   11.75    1.27
 -14   6   0    9.93    1.35
 -14   6   0   17.85    4.05
 -14   8   0   11.67    1.47
   8  14   0    8.49    1.05
  14  -8   0   12.57    1.56
   8  14   0   13.30    1.35
 -14  10   0    1.69    1.00
  10  14   0   -1.15    0.99
 -14  12   0    0.80    1.09
  14  14   0   -1.96    1.10
 -14  14   0    1.64    1.15
 -13  15   0   -0.32    1.08
  15  11   0   -0.79    1.05
 -11  15   0   -0.18    0.93
  -9  15   0   -0.33    0.77
  15   9   0    1.40    1.08
  15   7   0    2.27    0.99
  -7  15   0   -0.68    0.76
  -5  15   0   -0.28    0.80
  15   5   0    2.80    0.94
  15   3   0    1.73    0.93
  15   3   0    1.68    2.17
  -1  15   0   -0.30    0.78
  15   1   0    0.97    0.87
  -1 -15   0    1.41    2.25
 -15   1   0   -0.55    0.71
   1  15   0    0.07    0.80
   1  15   0    1.65    2.06
  15  -1   0    2.99    2.18
  15  -3   0   -0.57    2.18
   3  15   0    0.35    0.77
 -15   3   0   -2.08    2.57
   3  15   0    4.19    2.05
 -15   3   0   -0.29    0.73
  15  -3   0    0.44    0.84
  -3 -15   0   -0.42    2.27
   5  15   0    1.02    0.83
  15  -5   0    0.92    0.93
 -15   5   0    0.07    0.87
  15  -7   0   -0.47    0.95
   7  15   0    0.56    0.91
 -15   7   0    0.67    0.97
 -15   9   0    0.02    1.06
  15  -9   0    0.49    1.07
 -15  11   0   -0.83    1.06
 -15  13   0    0.61    1.20
 -15  15   0   -0.28    1.22
 -14  16   0    1.45    1.11
  16  12   0    3.54    1.15
 -12  16   0    4.15    0.99
  16  10   0    0.69    1.08
 -10  16   0   -0.54    0.90
  -8  16   0   -0.37    0.90
  16   8   0    1.20    1.13
  16   6   0   12.60    1.78
  16   4   0    7.62    1.56
  -2  16   0    2.27    0.94
  16   2   0    7.92    1.46
  16   0   0   25.34    4.21
 -16   0   0   14.46    1.48
  16   0   0   22.98    1.75
   0  16   0   18.88    1.63
 -16   2   0   25.00    4.81
 -16   2   0   23.87    1.71
  16  -2   0   23.09    4.39
   2  16   0   24.96    2.03
  16  -2   0   26.42    1.83
  16  -4   0   67.32    3.20
 -16   4   0   60.30    3.16
   4  16   0   61.31    3.15
  16  -6   0    9.04    1.67
 -16   6   0   10.76    1.65
   6  16   0    7.44    1.49
  16  -8   0    0.21    1.10
 -16   8   0    0.61    1.13
 -16  10   0    0.06    1.22
 -16  12   0    3.33    1.31
 -16  14   0    2.88    1.39
 -16  16   0    2.82    1.31
 -15  17   0    1.70    1.32
 -13  17   0    0.62    1.18
  17  11   0   -1.37    1.02
 -11  17   0    0.36    1.04
  17   9   0    0.09    1.11
  -9  17   0    0.25    0.98
  17   7   0    1.33    0.98
  -7  17   0    0.18    0.95
  -5  17   0   -0.79    0.92
  17   5   0    1.99    0.97
  -3  17   0   -0.62    0.95
  17   3   0    2.06    0.98
  -1  17   0   -0.17    0.99
 -17  -1   0   -1.61    0.92
  17   1   0    1.45    0.86
   1  17   0    0.23    1.04
  17  -1   0    0.12    0.92
 -17   1   0    0.71    0.85
   3  17   0    0.50    0.99
  17  -3   0   -0.35    0.96
   5  17   0    0.50    1.03
 -17   5   0    1.70    1.06
  17  -5   0    0.08    1.03
  17  -7   0   -2.34    1.09
 -17   7   0    1.15    1.15
 -17   9   0    2.10    1.32
 -17  11   0    1.77    1.45
 -17  13   0    1.52    1.43
 -17  15   0    2.03    1.45
 -14  18   0    0.31    1.21
 -12  18   0    4.21    1.17
  18  12   0    2.10    1.20
 -10  18   0    1.44    1.13
  18  10   0   -0.19    1.08
  18   8   0    1.86    1.13
  -8  18   0    2.22    1.04
  -6  18   0    2.08    1.02
  18   6   0    2.42    0.94
  18   4   0    3.26    1.04
  -4  18   0    2.37    1.09
  18   2   0    7.32    1.52
  -2  18   0    4.64    1.20
 -18   0   0    1.85    1.13
  18   0   0    0.64    1.00
   0  18   0    0.10    1.11
 -18   2   0    7.05    1.53
   2  18   0    4.91    1.19
  18  -2   0    3.94    1.10
  18  -4   0   39.87    2.49
 -18   4   0   43.29    2.56
   4  18   0   35.25    2.47
 -18   6   0    3.07    1.28
  18  -6   0   -0.64    1.17
 -18   8   0    2.86    1.44
  18  -8   0   -1.58    1.28
 -18  10   0    5.42    1.62
 -18  12   0    2.35    1.54
 -18  14   0    4.01    1.58
 -13  19   0    1.49    1.16
 -11  19   0   -0.30    1.28
  19  11   0   -0.77    1.04
  -9  19   0    0.20    1.13
  19   9   0   -0.36    1.13
  19   7   0   -0.33    1.02
  -7  19   0    0.22    1.14
  19   5   0   -0.38    1.02
  -5  19   0    0.12    1.19
  -3  19   0    0.93    1.27
  19   3   0    0.64    0.98
  19   1   0    0.08    0.93
  -1  19   0   -0.24    1.20
  19  -1   0   -0.26    0.98
   1  19   0    0.87    1.22
   3  19   0    2.09    1.28
  19  -3   0   -0.57    1.13
  19  -5   0   -0.42    1.24
 -19   7   0    9.99    1.94
 -19   9   0    3.80    1.57
 -19  11   0    5.55    1.68
 -19  13   0   10.64    1.99
  20  12   0    2.18    1.24
 -12  20   0    4.12    1.26
  20  10   0    1.20    1.23
 -10  20   0    4.19    1.36
  -8  20   0    1.65    1.21
  20   8   0   -0.01    1.09
  20   6   0    1.66    0.96
  -6  20   0    1.28    1.23
  -4  20   0    7.91    1.49
  20   4   0    8.57    1.56
  -2  20   0    9.72    1.80
  20   2   0    7.26    1.54
   0  20   0    0.81    1.35
  20   0   0   -1.28    1.01
  20  -2   0    3.05    1.18
   2  20   0    4.15    1.45
  20  -4   0   54.52    3.12
   4  20   0   47.17    3.34
 -20   4   0   65.08    3.27
 -20  10   0   11.24    2.07
 -20  12   0   10.88    2.06
  21   9   0   -1.29    1.05
  -9  21   0    1.32    1.31
  -7  21   0    0.01    1.76
  21   5   0   -0.52    0.99
  -5  21   0    1.32    1.42
  21   3   0   -1.00    1.01
  -3  21   0    1.64    1.41
  21   1   0   -1.10    1.11
  -1  21   0    2.60    1.50
  21  -1   0   -1.46    1.16
   1  21   0    0.79    1.44
   3  21   0    0.79    1.44
  21  -3   0   -1.84    1.26
  21  -5   0   -1.65    1.30
 -21   9   0   15.23    2.58
  -8  22   0    1.29    1.37
  22   8   0   -0.14    0.98
  22   6   0   -0.90    0.97
  -6  22   0    0.97    1.45
  -4  22   0    2.68    1.81
  22   4   0   -0.36    1.06
  -2  22   0    4.39    1.63
  22   2   0   -0.53    1.23
   0  22   0    5.51    1.66
   2  22   0    1.05    1.52
  22  -2   0   -2.26    1.27
  22  -4   0   -1.47    1.33
  22  -6   0   -1.84    1.44
 -22   8   0   27.15    2.81
  23   5   0   -0.81    0.92
  -5  23   0    1.27    1.50
  -3  23   0    3.31    1.70
  23   1   0   -2.02    1.18
  -1  23   0    2.99    1.74
  23  -1   0   -1.06    1.30
   1  23   0    4.53    2.98
  -1   0  -1    5.20    0.33
   0   1  -1    5.30    0.37
   0  -1  -1    6.43    0.96
   1   0  -1    5.66    0.42
   0  -1  -1    5.27    0.42
   1   0  -1    5.36    0.41
  -1   0  -1    5.35    0.40
   0   1  -1    5.14    0.40
   0   1   1    5.26    0.88
   0  -1   1    4.89    1.08
  -1   0   1    5.63    1.19
   1   0   1    4.72    0.83
   2   1  -1   36.45    1.68
   2   1  -1   35.58    1.67
   1  -2  -1   38.64    2.25
   2   1  -1   35.73    2.26
  -1   2  -1   35.89    1.63
  -1   2  -1   39.55    2.27
   1  -2  -1   36.80    1.67
  -2  -1  -1   36.73    1.68
  -1   2  -1   36.62    1.67
   1  -2   1   36.07    2.28
   2   1   1   39.25    1.73
   2   1   1   38.55    1.72
  -1   2   1   37.23    2.26
  -1   2   1   34.97    1.67
  -2  -1   1   41.00    2.36
   2  -1  -1   83.46    3.71
  -1  -2  -1   90.01    3.89
   1   2  -1   82.07    3.71
   1   2  -1   79.67    3.68
  -2   1  -1   76.71    3.69
  -1  -2  -1   86.19    3.71
  -2   1  -1   86.50    4.02
   2  -1  -1   90.81    4.19
  -2   1   1   81.41    3.71
  -2   1   1   87.49    4.19
   1   2   1   95.56    3.88
   1   2   1   78.42    3.67
  -1  -2   1   89.56    4.15
   2  -1   1   85.52    4.00
  -2   3  -1   87.00    4.00
   2  -3  -1   96.28    4.68
   3   2  -1   82.26    3.99
   3   2  -1   99.98    4.60
   2  -3  -1   88.96    3.99
   3   2  -1   88.02    4.00
  -2   3  -1   92.22    4.63
  -2   3   1   85.91    4.00
  -3  -2   1   93.32    4.59
   2  -3   1   98.31    4.64
  -2   3   1   97.38    4.66
   0   3  -1   99.04    4.59
   3   0  -1   86.09    4.04
   3   0  -1   97.00    4.62
   0  -3  -1   92.72    4.04
   0   3  -1   86.25    4.00
  -3   0  -1   82.21    4.01
  -3   0  -1   96.11    4.26
   0   3  -1   90.11    4.05
   0  -3  -1  100.68    4.49
   0  -3   1   97.92    4.61
  -3   0   1   86.45    4.05
   3   0   1   95.42    4.28
   0   3   1   90.06    4.03
   0   3   1   99.32    4.47
  -3   0   1   95.86    4.58
  -2  -3  -1   19.16    0.94
   2   3  -1   18.32    0.88
  -3   2  -1   13.85    1.89
   3  -2  -1   22.51    2.06
  -3   2  -1   14.70    0.93
   2   3  -1   17.54    0.93
   3  -2  -1   17.90    0.92
  -3   2   1   18.70    2.06
  -2  -3   1   14.03    1.92
  -3   2   1   18.06    0.97
   2   3   1   16.35    1.30
   2   3   1   15.52    0.81
   3  -2   1   17.86    1.94
  -3   4  -1  840.00   35.91
   4   3  -1  822.17   35.83
   3  -4  -1  837.73   35.94
  -3   4   1  802.82   35.87
   3  -4   1  835.83   35.90
  -4  -3   1  805.20   35.83
  -1   4  -1  576.66   25.22
  -4  -1  -1  577.03   24.86
   4   1  -1  586.99   25.19
   1  -4  -1  601.60   25.20
   4   1   1  574.10   24.86
  -1   4   1  551.61   25.14
   1  -4   1  564.62   25.20
  -4  -1   1  576.33   25.19
   1   4  -1  730.35   32.46
   4  -1  -1  728.86   32.47
  -1  -4  -1  741.55   32.30
  -4   1  -1  782.94   32.35
   1   4   1  762.60   32.32
  -1  -4   1  744.58   32.47
  -4   1   1  722.46   32.47
   4  -1   1  752.75   32.33
   4  -3  -1  325.67   15.16
  -3  -4  -1  368.60   15.35
  -4   3  -1  329.28   15.17
  -4   3  -1  371.28   15.69
   4  -3  -1  357.26   15.73
   3   4  -1  302.26   15.15
  -3  -4   1  382.62   15.72
   3   4   1  366.85   15.34
   4  -3   1  372.68   15.71
  -4   3   1  365.64   15.74
   4  -3   1  314.26   15.14
  -3  -4   1  372.29   15.70
   5   4  -1  109.62    5.20
  -5  -4  -1  132.36    5.40
   4  -5  -1  125.32    6.18
  -5  -4  -1  120.39    5.34
  -4   5  -1  116.45    5.22
   5   4  -1  118.21    5.21
   4  -5  -1  118.62    5.19
  -4   5  -1  121.19    6.12
   4  -5   1  120.95    6.13
  -4   5   1  117.25    5.22
  -5  -4   1  120.45    5.92
   4  -5   1  102.97    5.14
  -5  -4   1  130.03    5.96
  -4   5   1  117.11    6.05
   5   4   1  117.72    5.14
  -2   5  -1   93.98    4.25
   2  -5  -1  109.29    5.15
   2  -5  -1   90.55    4.21
  -5  -2  -1   88.62    4.16
  -5  -2  -1  104.00    4.38
   5   2  -1   94.41    4.25
  -2   5  -1   97.54    5.10
   5   2  -1  102.76    4.93
   5   2  -1   88.15    4.23
   5   2   1  101.78    4.37
  -5  -2   1   97.91    4.98
  -2   5   1   94.21    4.25
  -2   5   1   94.61    5.09
   2  -5   1   95.59    5.10
   0   5  -1  979.27   42.55
  -5   0  -1 1000.00   42.31
   0  -5  -1  972.81   42.46
   5   0  -1  986.64   42.54
   0  -5   1  962.36   42.54
   0   5   1  982.23   42.47
   5   0   1  980.66   42.32
  -5   0   1  969.74   42.54
   5  -2  -1   27.94    2.53
  -5   2  -1   26.99    2.38
  -2  -5  -1   28.33    2.11
   2   5  -1   26.24    1.27
   2   5  -1   26.92    1.36
  -5   2  -1   24.75    1.31
   5  -2  -1   27.64    1.37
   2   5  -1   24.60    2.34
   2   5   1   28.64    2.08
   2   5   1   25.27    1.27
  -5   2   1   26.86    1.37
  -2  -5   1   25.37    2.51
   5  -2   1   28.31    2.42
  -5   2   1   32.35    2.59
   5  -2   1   25.83    1.33
   4   5  -1   27.70    1.41
   5  -4  -1   29.47    1.43
  -5   4  -1   25.73    1.51
   5  -4  -1   28.47    2.79
  -4  -5  -1   29.58    1.89
  -5   4  -1   28.14    2.68
   4   5  -1   28.24    1.42
   5  -4   1   32.16    2.80
  -4  -5   1   32.54    2.61
  -5   4   1   29.66    1.48
  -5   4   1   28.47    2.73
  -4  -5   1   28.28    2.58
   5  -4   1   27.51    1.38
   4   5   1   28.77    1.32
   4   5   1   28.93    1.85
   6   5  -1    5.45    0.76
  -6  -5  -1    4.48    0.86
   5  -6  -1    3.64    0.67
  -5   6  -1    4.02    0.61
   5  -6  -1    5.32    1.95
  -6  -5  -1    4.28    0.96
  -5   6  -1    3.13    1.63
   6   5  -1    3.36    0.67
   5  -6   1    2.60    0.48
  -5   6   1    2.67    1.67
  -6  -5   1    3.90    1.40
  -5   6   1    4.29    0.85
  -6  -5   1    4.80    1.43
   5  -6   1    4.99    1.85
   6   5   1    3.79    0.45
  -6  -3  -1   20.67    1.47
   6   3  -1   17.71    2.18
   6   3  -1   19.52    1.11
   3  -6  -1   23.47    2.70
  -6  -3  -1   18.12    0.90
   6   3  -1   21.13    1.18
   3  -6  -1   18.52    1.02
  -3   6  -1   18.36    2.64
  -3   6  -1   19.81    1.16
  -6  -3   1   17.97    2.28
  -3   6   1   19.98    1.14
  -3   6   1   21.24    2.71
   3  -6   1   17.46    2.48
  -6  -1  -1   86.49    3.88
   1  -6  -1   92.81    4.80
   1  -6  -1   88.56    3.91
  -1   6  -1   85.79    3.96
   6   1  -1   83.84    3.95
   6   1  -1   93.85    4.80
  -6  -1  -1   95.44    4.33
  -1   6  -1   93.67    4.91
  -1   6   1   89.02    3.95
   6   1   1   77.79    4.00
   6   1   1   93.12    4.30
  -6  -1   1   94.05    4.79
  -6  -1   1   87.17    3.93
  -1   6   1   89.75    4.76
   1  -6   1   92.32    4.88
   6  -1  -1  290.18   12.81
  -6   1  -1  308.76   12.66
   1   6  -1  244.34   12.11
  -1  -6  -1  278.65   12.15
  -1  -6  -1  287.20   12.65
  -6   1  -1  267.83   12.14
   1   6  -1  291.37   12.81
   1   6   1  301.94   12.69
   6  -1   1  298.94   12.63
   1   6   1  278.52   12.15
   6  -1   1  255.48   12.15
  -6   1   1  290.72   12.82
  -1  -6   1  293.59   12.83
  -6   1   1  259.49   12.16
   3   6  -1   10.73    0.76
   6  -3  -1   15.02    2.34
  -6   3  -1    9.07    2.23
   3   6  -1   14.03    2.16
   6  -3  -1   10.46    1.30
  -3  -6  -1   11.39    1.70
  -6   3  -1   10.37    0.79
  -6   3   1   11.13    0.88
   3   6   1   10.88    0.69
   6  -3   1   11.01    0.85
   3   6   1   10.93    1.70
   6  -3   1   15.30    2.18
  -6   3   1   15.52    2.36
  -3  -6   1    9.48    2.07
   5   6  -1    1.57    0.44
  -6   5  -1    0.86    0.52
   5   6  -1    1.32    0.44
   6  -5  -1    1.59    1.71
   6  -5  -1    1.20    0.43
  -6   5  -1    1.10    1.55
  -5  -6  -1    1.53    0.94
   6  -5   1    0.78    0.33
  -6   5   1    1.46    0.50
  -5  -6   1    0.21    1.30
  -5  -6   1    1.43    1.35
  -6   5   1    1.32    1.61
   5   6   1    1.57    0.32
   6  -5   1    2.46    1.59
  -6   7  -1   28.10    3.14
  -6   7  -1   25.06    1.50
   6  -7  -1   27.69    3.24
   7   6  -1   28.90    1.46
   6  -7  -1   25.76    1.37
  -7  -6  -1   28.09    2.06
  -7  -6  -1   25.12    1.91
   7   6  -1   26.05    1.39
   7   6   1   25.00    1.24
  -7  -6   1   26.66    2.67
   6  -7   1   28.23    3.11
   6  -7   1   24.70    1.26
  -7  -6   1   25.25    2.74
  -6   7   1   24.90    1.49
  -6   7   1   25.16    3.06
  -4   7  -1  127.17    6.61
   7   4  -1  126.00    6.21
  -7  -4  -1  131.06    5.67
   4  -7  -1  131.02    6.54
   7   4  -1  121.73    5.42
   7   4  -1  122.92    5.42
  -7  -4  -1  117.38    5.33
   4  -7  -1  119.82    5.38
  -4   7  -1  125.54    5.44
  -7  -4  -1  129.28    5.69
  -4   7   1  121.22    6.43
  -7  -4   1  127.60    6.28
   7   4   1  121.90    5.45
   4  -7   1  120.14    6.44
   4  -7   1  110.93    5.31
  -4   7   1  123.16    5.44
  -7  -2  -1    1.30    0.93
   7   2  -1    1.09    0.49
  -7  -2  -1    0.09    0.28
   7   2  -1    0.28    1.28
   2  -7  -1    0.86    0.36
  -2   7  -1    2.01    1.59
  -2   7  -1    0.68    0.51
   2  -7  -1    0.39    1.45
  -2   7   1    0.40    1.52
   7   2   1    0.69    0.90
  -2   7   1    0.56    0.48
   7   2   1    0.08    0.46
  -7  -2   1    0.74    1.32
   2  -7   1   -0.31    1.52
  -7   0  -1   50.92    3.02
   0  -7  -1   47.66    3.29
   7   0  -1   50.03    3.32
   0   7  -1   48.63    2.28
   7   0  -1   48.72    2.29
   0  -7  -1   49.50    2.22
   0   7  -1   49.26    3.41
  -7   0  -1   49.77    2.19
   0  -7   1   46.11    3.39
   7   0   1   47.86    2.30
   0   7   1   47.63    2.26
   7   0   1   50.76    2.92
   0   7   1   48.65    3.34
  -7   0   1   47.29    3.31
  -7   0   1   47.88    2.24
   2   7  -1   31.83    1.63
   2   7  -1   37.40    2.98
   2   7  -1   36.94    1.74
  -7   2  -1   38.61    2.89
  -7   2  -1   36.55    1.69
   7  -2  -1   35.79    1.75
   7  -2  -1   35.82    2.87
  -2  -7  -1   35.81    2.66
   7  -2   1   36.89    2.78
  -2  -7   1   36.73    2.93
  -7   2   1   36.08    2.98
   2   7   1   35.94    2.69
  -7   2   1   36.38    1.73
   2   7   1   36.47    1.68
   7  -2   1   30.42    1.83
  -4  -7  -1   72.34    3.86
   7  -4  -1   74.90    3.31
  -7   4  -1   79.68    4.48
   7  -4  -1   74.17    4.50
   4   7  -1   70.86    3.29
   4   7  -1   75.31    3.31
  -7   4  -1   71.13    3.30
  -4  -7   1   75.33    4.34
   7  -4   1   72.02    3.29
   4   7   1   73.22    3.26
  -7   4   1   71.56    4.44
   7  -4   1   72.84    4.37
  -7   4   1   75.43    3.34
   4   7   1   74.65    3.89
  -7   6  -1    3.45    1.87
  -6  -7  -1    2.97    1.04
   6   7  -1    5.49    0.84
   7  -6  -1    3.25    0.52
  -7   6  -1    1.46    0.56
  -6  -7  -1    3.12    1.10
   6   7  -1    3.37    0.52
   7  -6  -1    2.32    1.76
   7  -6   1    3.57    1.80
  -7   6   1    2.86    1.73
   7  -6   1    2.88    0.43
  -6  -7   1    2.61    1.43
   6   7   1    2.78    0.49
  -6  -7   1    3.98    1.55
  -7   6   1    3.13    0.61
   8   7  -1   19.06    1.21
  -8  -7  -1   16.51    1.91
   7  -8  -1   16.02    2.91
  -8  -7  -1   16.45    1.72
   8   7  -1   16.83    1.11
   7  -8  -1   16.94    1.06
  -7   8  -1   15.36    1.20
  -7   8  -1   16.55    3.09
   7  -8   1   13.01    2.91
  -7   8   1   16.33    2.99
   8   7   1   16.97    1.29
   8   7   1   15.24    0.90
  -8  -7   1   16.07    2.59
  -8  -7   1   15.32    2.56
  -7   8   1   15.88    1.24
   7  -8   1   15.78    0.93
  -8  -5  -1   10.88    0.62
  -8  -5  -1   11.27    1.58
  -8  -5  -1   12.31    1.46
  -5   8  -1    9.28    2.11
   5  -8  -1   13.51    2.77
  -5   8  -1    9.68    1.04
   8   5  -1   11.63    0.90
   5  -8   1    9.86    0.58
  -5   8   1    9.87    1.02
  -8  -5   1   12.26    2.29
  -8  -5   1    9.72    2.35
  -5   8   1   12.25    2.63
   8   5   1   10.80    1.12
   5  -8   1   14.25    2.75
  -3   8  -1    2.65    0.63
  -8  -3  -1    2.96    1.05
   8   3  -1    2.07    1.33
   3  -8  -1    1.71    0.40
   3  -8  -1    2.40    1.76
  -3   8  -1    2.37    1.62
  -8  -3  -1    2.10    0.31
  -8  -3   1    2.18    0.45
   3  -8   1    1.39    1.52
   8   3   1    2.57    0.61
   8   3   1    2.04    0.91
  -8  -3   1    2.71    1.46
  -3   8   1    1.24    0.55
  -3   8   1    2.46    1.71
  -8  -1  -1   15.45    0.89
   8   1  -1   18.03    1.11
   8   1  -1   16.55    2.39
   1  -8  -1   15.77    0.93
  -8  -1  -1   17.49    1.94
  -1   8  -1   17.38    2.65
   1  -8  -1   17.09    2.47
  -1   8  -1   15.35    1.11
   1  -8   1   13.75    2.59
   8   1   1   15.43    1.13
  -8  -1   1   17.18    2.52
  -8  -1   1   16.14    0.99
   8   1   1   15.65    1.91
  -1   8   1   14.65    2.57
  -1   8   1   14.89    1.07
  -8   1  -1    1.39    1.30
  -1  -8  -1    0.67    1.35
   1   8  -1    0.08    0.49
   8  -1  -1    0.13    1.40
  -8   1  -1    0.35    0.37
   1   8  -1   -0.08    1.34
   8  -1  -1    1.09    0.51
   1   8   1    0.26    0.45
   1   8   1    1.31    1.44
  -8   1   1    0.54    1.38
  -1  -8   1   -1.08    1.52
   8  -1   1    0.54    0.51
  -8   1   1    0.35    0.45
   8  -1   1    0.40    1.20
   8  -3  -1   62.47    2.81
   3   8  -1   61.39    3.78
  -8   3  -1   61.22    2.78
   3   8  -1   57.44    2.74
   8  -3  -1   59.56    4.02
  -8   3  -1   63.08    3.97
   3   8  -1   62.06    2.80
   3   8   1   60.91    3.63
   3   8   1   58.96    2.74
   8  -3   1   60.10    3.89
  -3  -8   1   61.16    4.03
   8  -3   1   64.75    2.82
  -8   3   1   61.69    2.81
  -8   3   1   60.59    4.05
   8  -5  -1  149.25    6.41
   5   8  -1  147.73    6.42
   5   8  -1  145.68    6.41
  -8   5  -1  149.32    6.43
  -5  -8  -1  141.91    6.95
   8  -5  -1  140.12    7.51
  -8   5   1  144.43    7.49
  -5  -8   1  153.13    7.44
   5   8   1  144.69    6.96
   5   8   1  148.22    6.37
  -5  -8   1  153.87    7.40
   8  -5   1  138.13    6.39
  -8   5   1  148.59    6.44
   7   8  -1   15.08    1.00
   8  -7  -1   13.91    1.03
   7   8  -1   16.84    1.13
  -8   7  -1   13.22    2.79
   8  -7  -1   12.26    2.78
  -8   7  -1   12.40    1.13
  -7  -8  -1   14.53    1.78
  -7  -8  -1   14.85    1.90
  -8   7   1   12.46    2.78
   8  -7   1   13.53    2.88
   7   8   1   13.56    0.84
  -7  -8   1   11.41    2.56
  -7  -8   1    9.91    2.58
  -8   7   1   13.72    1.19
   8  -7   1   13.60    0.93
  -8   9  -1    1.57    1.75
   8  -9  -1    0.16    0.49
   8  -9  -1   -1.57    1.82
  -9  -8  -1   -0.65    1.13
  -9  -8  -1    1.46    1.00
   9   8  -1    1.24    0.63
   9   8  -1   -0.24    0.57
  -8   9  -1    0.15    0.64
   8  -9   1   -0.07    0.39
  -9  -8   1    2.80    1.69
   9   8   1    0.47    0.70
  -8   9   1    1.93    1.83
  -9  -8   1    0.13    1.58
  -8   9   1    0.10    0.68
   8  -9   1   -3.01    1.69
  -6   9  -1    1.84    0.68
   6  -9  -1    1.97    0.43
   6  -9  -1    2.69    1.77
   9   6  -1    2.25    0.56
  -6   9  -1    0.25    1.84
   9   6  -1    5.22    1.02
  -9  -6  -1    2.68    0.98
  -9  -6  -1    2.64    0.42
  -9  -6  -1    2.78    1.12
   6  -9   1    1.02    1.71
  -9  -6   1    1.47    1.61
  -9  -6   1    1.83    1.54
  -6   9   1    1.15    0.63
   9   6   1    2.59    0.73
   6  -9   1    2.42    0.39
  -6   9   1    4.50    1.84
  -9  -4  -1   52.31    2.46
   4  -9  -1   53.75    4.09
   9   4  -1   62.07    2.69
   9   4  -1   56.97    3.75
   4  -9  -1   53.47    2.52
  -4   9  -1   55.83    2.64
  -9  -4  -1   56.24    3.17
  -4   9  -1   55.49    4.05
  -9  -4   1   57.72    2.57
   4  -9   1   52.79    4.04
  -4   9   1   53.24    4.10
  -4   9   1   53.99    2.63
   9   4   1   56.35    2.70
  -9  -4   1   56.08    3.83
   2  -9  -1    0.25    0.37
  -2   9  -1   -0.21    0.59
  -9  -2  -1    0.33    1.14
  -9  -2  -1   -0.68    0.34
  -2   9  -1   -1.41    1.58
   9   2  -1    0.68    1.38
   2  -9  -1    0.39    1.57
  -2   9   1    0.07    1.68
  -9  -2   1   -0.17    0.44
  -9  -2   1   -0.01    1.49
   9   2   1    0.79    0.63
   2  -9   1   -0.31    1.45
   9   2   1    0.27    1.11
  -2   9   1   -0.88    0.53
  -9   0  -1   14.30    0.89
   0   9  -1   15.65    2.65
   0   9  -1   14.53    1.09
   9   0  -1   16.12    1.13
  -9   0  -1   14.13    2.23
   0  -9  -1   14.00    0.93
   0  -9  -1   16.19    2.55
   9   0  -1   15.34    2.43
   0   9   1   13.14    2.61
  -9   0   1   16.46    2.52
   0   9   1   13.14    1.02
   0  -9   1   16.46    2.73
   9   0   1   16.20    1.18
   9   0   1   15.12    2.06
  -9   0   1   14.76    0.99
  -2  -9  -1    1.37    1.41
   2   9  -1    0.61    0.54
   2   9  -1    0.05    0.35
   9  -2  -1    0.83    0.50
  -9   2  -1    2.68    1.57
  -9   2  -1    0.69    0.44
   9  -2   1    1.75    0.56
  -9   2   1    1.32    0.50
   9  -2   1    1.00    1.37
   2   9   1    0.48    1.39
   2   9   1    0.62    0.45
   9  -4  -1   39.57    1.96
   4   9  -1   39.57    1.92
  -9   4  -1   39.13    3.52
   4   9  -1   36.31    1.88
   9  -4  -1   37.76    3.41
  -4  -9  -1   36.22    2.87
  -9   4  -1   39.10    1.92
   9  -4   1   41.82    1.95
  -9   4   1   41.94    1.98
   9  -4   1   38.91    3.28
  -9   4   1   37.58    3.43
   4   9   1   38.62    2.87
   9  -6  -1   35.42    3.37
  -6  -9  -1   33.82    2.63
   6   9  -1   36.25    1.84
  -9   6  -1   37.01    1.87
   6   9  -1   36.90    1.83
  -9   6  -1   36.81    3.57
   9  -6  -1   37.70    1.85
  -9   6   1   38.74    1.93
   6   9   1   35.48    1.73
  -6  -9   1   36.69    3.41
   9  -6   1   35.39    1.81
  -9   6   1   30.28    3.36
  -6  -9   1   32.36    3.22
   9  -6   1   37.42    3.53
   9  -8  -1   41.34    4.06
  -8  -9  -1   51.27    3.34
   8   9  -1   50.20    2.46
   9  -8  -1   52.95    2.42
  -9   8  -1   54.27    2.52
  -9   8  -1   41.27    3.99
  -8  -9  -1   47.89    3.09
   8   9  -1   54.30    2.45
   9  -8   1   52.75    2.39
  -8  -9   1   51.55    3.92
  -9   8   1   53.66    2.54
   9  -8   1   45.08    4.17
  -9   8   1   47.83    3.94
  -8  -9   1   51.01    3.85
   8   9   1   50.34    2.33
   8   9   1   54.63    2.55
   9 -10  -1    1.56    2.00
   9 -10  -1   -0.10    0.56
  -9  10  -1    3.10    2.02
  -9  10  -1   -0.36    0.72
 -10  -9  -1    0.32    1.39
  10   9  -1    0.08    0.61
  10   9  -1    0.48    0.67
  10   9   1    0.39    0.73
 -10  -9   1   -0.53    1.81
 -10  -9   1   -1.33    1.86
   9 -10   1   -0.52    2.03
  -9  10   1   -0.51    0.72
  -9  10   1    2.93    2.00
   7 -10  -1   15.67    1.04
  -7  10  -1   17.15    1.30
 -10  -7  -1   17.66    1.76
   7 -10  -1   11.07    2.36
 -10  -7  -1   16.38    2.01
  -7  10  -1   16.39    2.72
  10   7  -1   15.37    1.20
  10   7  -1   19.30    1.39
  -7  10   1   15.39    1.29
  -7  10   1   13.10    2.94
 -10  -7   1   16.72    2.92
  10   7   1   18.77    1.44
 -10  -7   1   14.65    2.91
   7 -10   1   14.93    3.08
  -5  10  -1   -0.19    0.64
  10   5  -1    1.77    0.73
  -5  10  -1    0.55    1.74
 -10  -5  -1   -0.46    1.05
   5 -10  -1   -0.88    1.80
   5 -10  -1    0.30    0.41
 -10  -5  -1    0.46    0.95
   5 -10   1   -1.43    1.68
  -5  10   1    1.83    1.78
  10   5   1    0.23    0.66
 -10  -5   1    0.39    0.46
  -5  10   1   -0.61    0.60
 -10  -5   1    0.16    1.58
   3 -10  -1   50.11    3.91
   3 -10  -1   47.25    2.25
 -10  -3  -1   43.23    2.21
  -3  10  -1   48.62    3.88
  10   3  -1   54.23    2.41
  10   3  -1   48.12    3.55
 -10  -3  -1   46.76    3.09
  -3  10  -1   50.53    2.40
   3 -10   1   44.82    3.75
  -3  10   1   45.33    3.82
  -3  10   1   48.19    2.37
 -10  -3   1   50.07    3.74
  10   3   1   52.73    3.04
 -10  -3   1   51.99    2.31
  10   3   1   51.89    2.47
  -1  10  -1    4.23    0.68
   1 -10  -1    3.42    0.51
 -10  -1  -1    3.72    1.44
   1 -10  -1    4.65    1.79
 -10  -1  -1    3.40    0.63
  -1  10  -1    3.89    1.82
  10   1  -1    4.94    1.63
  -1  10   1    3.80    1.73
  10   1   1    5.26    1.47
  -1  10   1    3.23    0.58
  10   1   1    5.89    1.09
   1 -10   1    3.29    1.79
 -10  -1   1    4.22    0.72
 -10  -1   1    2.79    1.63
  -1 -10  -1    5.90    1.70
  10  -1  -1    8.71    0.97
   1  10  -1    6.96    0.92
  10  -1  -1    6.06    1.78
   1  10  -1    5.84    1.68
 -10   1  -1    8.43    1.73
 -10   1  -1    6.95    0.73
 -10   1   1    7.10    1.84
  -1 -10   1    4.75    1.76
 -10   1   1    7.72    0.84
  10  -1   1    6.84    1.63
   1  10   1    6.80    0.84
   1  10   1    7.69    1.84
   3  10  -1   18.44    2.52
   3  10  -1   16.31    1.11
  -3 -10  -1   19.84    2.49
  10  -3  -1   19.56    2.65
   3  10  -1   20.47    1.26
 -10   3  -1   19.95    1.19
  10  -3  -1   21.08    1.32
 -10   3  -1   22.41    2.94
   3  10   1   19.79    2.59
  -3 -10   1   20.71    2.97
  10  -3   1   18.07    2.66
 -10   3   1   19.43    3.00
   3  10   1   19.62    1.16
 -10   3   1   22.31    1.30
  10  -3   1   23.28    1.32
 -10   5  -1    0.89    1.74
   5  10  -1    0.67    0.55
  10  -5  -1    0.64    1.60
  -5 -10  -1    1.77    1.32
 -10   5  -1   -0.03    0.55
   5  10  -1   -0.20    0.47
  10  -5  -1   -0.01    0.59
  -5 -10   1    1.29    1.65
  10  -5   1   -0.11    0.52
   5  10   1    0.15    0.43
   5  10   1    0.41    1.17
 -10   5   1    0.83    0.59
 -10   5   1    0.35    1.81
  10  -5   1   -0.82    1.57
   7  10  -1   20.47    1.43
 -10   7  -1   23.01    3.23
  -7 -10  -1   21.01    2.62
  10  -7  -1   21.89    3.19
 -10   7  -1   23.18    1.47
  -7 -10  -1   22.81    2.35
   7  10  -1   23.37    1.39
  10  -7  -1   25.09    1.46
  -7 -10   1   24.02    3.30
 -10   7   1   21.73    3.25
  10  -7   1   23.31    1.42
  -7 -10   1   26.44    3.02
   7  10   1   24.92    1.52
  10  -7   1   21.80    3.29
   7  10   1   25.21    1.39
 -10   7   1   24.17    1.53
 -10   9  -1    8.36    2.30
 -10   9  -1    9.65    1.20
   9  10  -1    9.84    1.25
  10  -9  -1    4.20    2.43
   9  10  -1   10.18    1.10
  -9 -10  -1   12.71    2.45
  10  -9  -1   10.36    1.09
 -10   9   1    9.32    1.23
   9  10   1   10.25    1.34
 -10   9   1    6.50    2.40
  10  -9   1    9.34    1.03
  -9 -10   1    7.93    2.21
   9  10   1    8.17    0.84
  10 -11  -1    1.48    0.68
  11  10  -1    1.82    0.89
 -10  11  -1    0.61    0.78
  11  10  -1    0.93    0.77
 -10  11   1    0.98    0.76
 -11 -10   1   -2.12    2.25
 -11 -10   1    0.91    2.25
  11  10   1    2.13    0.91
 -11  -8  -1    1.60    1.46
   8 -11  -1    2.83    0.56
  -8  11  -1   -1.38    2.21
  -8  11  -1    2.26    0.77
  11   8  -1    2.91    0.83
   8 -11  -1   -0.89    2.03
  11   8   1    3.77    0.86
 -11  -8   1    1.68    2.06
 -11  -8   1    2.48    2.03
  -8  11   1    5.82    1.98
  -8  11   1    1.26    0.69
  -6  11  -1    5.90    2.04
 -11  -6  -1    8.34    1.65
 -11  -6  -1    4.64    1.39
   6 -11  -1    5.02    2.08
   6 -11  -1    6.87    0.82
  11   6  -1   10.44    1.35
  -6  11  -1    6.27    1.03
  -6  11   1    5.86    1.09
 -11  -6   1    5.68    2.16
  11   6   1    9.17    1.27
 -11  -6   1    6.54    2.07
   6 -11   1    5.40    2.05
  -6  11   1    6.47    2.21
 -11  -6   1    7.75    0.87
   4 -11  -1    3.97    1.97
  11   4  -1    3.89    1.85
 -11  -4  -1    5.73    1.40
  -4  11  -1    3.75    2.06
   4 -11  -1    6.43    0.77
  -4  11  -1    6.25    1.05
 -11  -4  -1    4.51    0.51
   4 -11   1    8.21    2.23
 -11  -4   1    7.79    0.81
  -4  11   1    6.77    2.02
 -11  -4   1    6.60    1.87
  11   4   1    8.31    1.25
  -4  11   1    5.76    1.02
  -2  11  -1    3.82    0.71
   2 -11  -1    2.64    1.71
 -11  -2  -1    3.40    0.49
 -11  -2  -1    2.14    1.45
   2 -11  -1    3.47    0.61
  -2  11  -1    0.52    1.83
  11   2  -1    3.82    1.68
 -11  -2   1    3.76    0.74
  11   2   1    4.26    1.45
  -2  11   1    3.31    0.64
  -2  11   1    6.07    1.98
   2 -11   1    3.88    1.85
  11   2   1    5.18    0.81
 -11  -2   1    2.70    1.71
  11   0  -1   18.43    2.92
  11   0  -1   19.63    1.33
   0  11  -1   15.93    2.88
   0  11  -1   18.23    1.31
   0 -11  -1   16.38    2.76
 -11   0  -1   18.08    1.09
 -11   0  -1   18.30    2.62
  11   0   1   19.37    2.57
  11   0   1   22.08    1.44
   0  11   1   19.39    2.88
 -11   0   1   19.62    1.19
   0  11   1   18.20    1.25
   0 -11   1   18.02    2.92
 -11   0   1   15.37    2.96
  11  -2  -1    3.33    1.71
   2  11  -1    3.22    0.68
 -11   2  -1    4.33    1.83
  11  -2  -1    2.88    0.62
   2  11  -1    3.33    1.59
 -11   2  -1    2.16    0.53
  -2 -11  -1    1.71    1.55
   2  11   1    3.65    0.59
  11  -2   1    2.05    1.66
 -11   2   1    2.35    0.60
 -11   2   1    3.06    1.92
   2  11   1    3.48    1.83
  -2 -11   1    2.70    1.72
  11  -2   1    5.65    1.14
 -11   4  -1   -1.11    1.84
   4  11  -1   -2.04    1.38
  -4 -11  -1    1.31    1.46
  11  -4  -1    0.72    1.50
   4  11  -1    0.59    0.57
  11  -4  -1    0.91    0.61
 -11   4  -1    0.40    0.54
   4  11   1   -2.40    1.38
 -11   4   1   -0.16    1.82
 -11   4   1    1.06    0.59
  11  -4   1    0.30    0.60
  11  -4   1   -0.56    1.60
   4  11   1    0.40    0.50
  -4 -11   1    3.94    1.75
 -11   6  -1    1.95    0.69
   6  11  -1    2.32    0.63
  -6 -11  -1    3.50    1.43
 -11   6  -1    2.39    2.00
  11  -6  -1    2.43    1.81
  11  -6  -1    1.81    0.63
  -6 -11   1   -0.41    1.93
  -6 -11   1    3.53    1.80
 -11   6   1   -1.30    1.79
  11  -6   1    1.18    1.86
 -11   6   1    2.09    0.70
  11  -6   1    1.21    0.61
   6  11   1    2.28    0.52
  11  -8  -1    9.12    1.14
   8  11  -1    5.45    1.15
  -8 -11  -1    7.77    2.61
 -11   8  -1   12.37    3.02
   8  11  -1    9.26    1.10
  -8 -11  -1    6.03    1.79
 -11   8  -1    9.50    1.22
  11  -8  -1    7.32    2.20
  11  -8   1    7.84    1.12
  11  -8   1    9.27    2.32
   8  11   1   10.23    1.28
   8  11   1    8.61    0.91
 -11   8   1    8.38    1.27
  -8 -11   1   14.39    3.35
  -8 -11   1    4.62    2.18
 -11   8   1    8.64    2.34
  10  11  -1   -0.27    0.75
  11 -10  -1    0.33    0.71
  10  11  -1    1.15    0.77
 -10 -11   1   -2.11    2.37
  10  11   1    1.24    0.85
 -11  10   1    0.48    0.78
 -10 -11   1    7.06    2.43
 -11  12  -1    8.47    1.32
  12  11  -1   10.35    1.54
  12  11   1   10.99    1.64
 -11  12   1    7.03    1.35
  -9  12  -1   -0.23    0.71
  12   9  -1    1.88    0.87
  12   9   1    1.27    0.95
 -12  -9   1    1.72    2.36
 -12  -9   1   -2.01    2.30
  -9  12   1    0.13    0.78
  12   7  -1    2.74    0.78
  -7  12  -1    1.22    0.65
   7 -12  -1    2.34    0.56
   7 -12  -1    4.11    2.82
  12   7   1    2.81    0.86
 -12  -7   1    4.50    2.03
 -12  -7   1    2.70    1.95
  -7  12   1    1.55    0.71
  -7  12   1    4.26    2.98
  -5  12  -1   -0.05    1.98
  12   5  -1    2.06    0.71
   5 -12  -1    0.90    0.48
   5 -12  -1   -2.70    2.10
  -5  12  -1    0.84    0.73
  -5  12   1    0.52    0.66
  -5  12   1    0.69    1.91
 -12  -5   1    1.70    0.57
  12   5   1    1.51    0.77
 -12  -5   1    2.73    1.83
   5 -12   1   -0.48    1.93
 -12  -3  -1   -0.42    1.36
  12   3  -1    0.86    0.71
  12   3  -1    0.70    1.55
   3 -12  -1    1.12    1.88
  -3  12  -1    0.09    1.92
   3 -12  -1   -0.24    0.42
  -3  12  -1   -0.32    0.64
 -12  -3   1    0.55    1.66
  12   3   1    0.72    0.78
 -12  -3   1   -0.18    0.50
  -3  12   1    3.32    1.87
  -3  12   1   -0.19    0.60
   3 -12   1    0.57    2.05
  12   3   1    1.03    1.28
 -12  -1  -1   44.75    3.55
  -1  12  -1   49.09    2.36
  12   1  -1   50.53    3.93
 -12  -1  -1   46.89    2.21
  12   1  -1   51.48    2.39
  -1  12  -1   45.96    3.84
 -12  -1   1   38.29    3.95
  12   1   1   51.96    2.47
  12   1   1   46.13    3.62
  -1  12   1   45.96    3.98
  -1  12   1   48.12    2.33
 -12  -1   1   46.71    2.28
   1 -12   1   40.40    3.78
 -12   1  -1   20.77    3.04
   1  12  -1   19.45    2.99
  -1 -12  -1   15.35    2.86
 -12   1  -1   18.41    1.15
   1  12  -1   18.80    1.35
  12  -1  -1   19.68    1.37
  12  -1  -1   18.38    2.91
  12  -1   1   23.32    1.50
 -12   1   1   17.66    2.81
   1  12   1   20.73    2.92
  -1 -12   1   22.17    3.03
   1  12   1   18.23    1.28
 -12   1   1   17.91    1.26
  12  -1   1   14.80    2.77
  -3 -12  -1    2.86    1.71
 -12   3  -1    5.52    0.85
  12  -3  -1    5.84    1.12
   3  12  -1    5.67    1.83
   3  12  -1    5.02    0.98
 -12   3  -1    6.14    1.98
  12  -3  -1    5.16    1.88
   3  12   1    5.38    0.92
  12  -3   1    5.75    1.09
  12  -3   1    1.29    1.99
   3  12   1    2.26    1.61
  -3 -12   1   11.02    2.79
 -12   3   1    5.27    1.02
 -12   5  -1    4.23    2.08
 -12   5  -1    2.61    0.67
   5  12  -1    2.50    0.67
  12  -5  -1    2.79    0.69
  -5 -12  -1    2.95    1.64
  12  -5  -1    2.07    1.74
   5  12   1    2.44    0.57
  -5 -12   1    2.29    2.00
  12  -5   1    1.43    0.67
   5  12   1    2.32    1.50
  12  -5   1   -1.22    1.91
 -12   5   1    1.92    1.99
 -12   5   1    2.12    0.69
  12  -7  -1    1.06    0.72
  -7 -12  -1    2.96    1.80
  -7 -12  -1    0.46    1.65
  12  -7  -1    1.18    1.98
 -12   7  -1   -0.66    0.70
 -12   7  -1    4.43    2.15
   7  12  -1    0.25    0.65
  12  -7   1    0.72    1.85
  -7 -12   1    2.62    2.01
   7  12   1    0.02    0.57
  -7 -12   1    3.33    2.11
 -12   7   1   -0.17    0.77
 -12   7   1   -1.40    2.00
   7  12   1    0.72    0.68
  12  -7   1   -0.87    0.69
   9  12  -1    0.84    0.80
 -12   9  -1    2.48    0.90
   9  12  -1    4.06    0.83
  12  -9  -1    3.17    0.78
  -9 -12   1    2.22    2.37
  12  -9   1    3.15    0.79
   9  12   1    1.90    0.81
  -9 -12   1    6.26    2.26
 -12   9   1    3.26    0.86
  12 -11  -1    1.89    0.86
 -12  11  -1    0.19    0.89
  11  12  -1    0.80    0.95
  11  12   1    1.22    0.93
 -12  11   1   -0.32    0.84
 -12  13  -1    4.77    1.01
  13  12  -1    5.39    1.08
 -12  13   1    3.60    0.93
  13  12   1    6.89    1.16
 -10  13  -1    2.38    0.82
  13  10  -1    4.68    0.98
  13  10   1    5.44    1.09
 -10  13   1    1.54    0.81
  -8  13  -1    2.51    0.76
 -13  -8   1    5.89    2.47
 -13  -8   1    0.94    2.48
  13   8   1    4.16    0.99
  -8  13   1    1.71    0.75
  13   6  -1    3.03    0.79
 -13  -6   1    3.58    0.71
  -6  13   1    2.10    0.82
 -13  -6   1   -0.24    2.18
  13   6   1    3.83    1.29
  -4  13  -1    4.18    1.93
   4 -13  -1    0.00    2.19
  -4  13  -1   -0.12    0.69
  13   4  -1    1.21    0.78
   4 -13  -1    0.16    0.64
 -13  -4  -1    0.19    1.56
  -4  13   1    6.28    2.20
  -4  13   1   -0.43    0.67
   4 -13   1   -1.73    2.07
 -13  -4   1   -0.56    1.84
  13   4   1    1.40    0.88
 -13  -4   1   -0.11    0.56
 -13  -2  -1    7.40    1.77
  13   2  -1    6.57    1.16
  -2  13  -1    4.88    1.07
   2 -13  -1    2.15    1.98
 -13  -2  -1    4.29    0.69
  13   2  -1    5.20    1.85
   2 -13   1    2.90    2.09
 -13  -2   1    4.99    0.70
  -2  13   1    4.90    1.07
  13   2   1    6.52    1.78
  13   2   1    9.03    1.43
  -2  13   1    6.23    2.15
 -13  -2   1    3.80    2.21
   0  13  -1   25.61    3.29
  13   0  -1   31.83    1.76
 -13   0  -1   35.31    3.41
  13   0  -1   27.21    3.47
   0  13  -1   30.03    1.78
 -13   0  -1   30.47    1.59
   0  13   1   30.53    1.74
   0  13   1   26.03    3.45
 -13   0   1   28.22    1.68
  13   0   1   35.77    1.93
  13   0   1   29.23    3.38
   0 -13   1   27.06    3.44
  13  -2  -1   -0.59    1.98
  -2 -13  -1    1.38    1.81
 -13   2  -1    2.23    0.59
   2  13  -1    4.64    1.92
   2  13  -1    2.40    0.71
  13  -2  -1    1.86    0.70
 -13   2   1   -0.55    1.95
  -2 -13   1    3.47    1.79
  13  -2   1    2.94    0.76
  13  -2   1    4.17    1.80
   2  13   1    5.53    1.84
   2  13   1    2.94    0.65
 -13   2   1    0.73    0.69
   4  13  -1    1.21    1.79
  13  -4  -1    5.15    0.80
   4  13  -1    5.33    0.78
 -13   4  -1    7.69    2.24
 -13   4  -1    6.09    1.03
   4  13   1    4.65    1.76
 -13   4   1    3.69    0.75
  13  -4   1    4.79    0.80
   4  13   1    5.20    1.02
  13  -4   1   -0.04    2.11
 -13   4   1    5.30    2.32
 -13   6  -1    3.90    2.26
 -13   6  -1   -0.31    0.77
  -6 -13  -1    1.68    1.77
  13  -6  -1    1.51    1.88
   6  13  -1   -0.14    0.72
  13  -6  -1   -0.01    0.71
   6  13   1    0.81    0.66
  -6 -13   1    1.98    1.91
   6  13   1    0.38    1.61
  -6 -13   1    1.90    2.22
  13  -6   1   -1.41    0.77
 -13   6   1   -0.34    0.73
 -13   6   1    2.25    1.93
  13  -6   1   -0.94    2.04
   6  13   1   -0.05    0.62
  13  -8  -1    2.29    0.85
 -13   8  -1    1.94    0.89
   8  13  -1    1.97    0.80
  13  -8   1    1.19    0.84
  -8 -13   1    4.54    2.29
   8  13   1    2.12    0.81
 -13   8   1    1.46    0.87
 -13  10  -1   -0.18    0.91
  10  13  -1    0.26    0.93
  13 -10  -1   -0.49    0.85
 -13  10   1   -1.11    0.87
  10  13   1   -0.04    0.91
 -13  12  -1    5.18    1.10
  12  13  -1    2.95    1.03
 -13  12   1    5.37    1.02
  12  13   1    6.01    1.15
 -13  14  -1   -0.01    1.07
  14  13   1   -2.20    1.15
 -13  14   1   -1.04    1.01
 -11  14  -1    0.09    0.89
  14  11  -1   -0.12    0.97
  14  11   1    1.23    1.12
 -11  14   1   -0.10    0.92
  14   9  -1    2.10    0.98
  -9  14  -1    0.10    0.82
  -9  14   1   -0.01    0.87
  14   9   1    1.90    1.10
  -7  14  -1    0.04    0.80
  14   7  -1    1.90    0.85
  -7  14   1   -0.38    0.77
 -14  -7   1   -1.73    2.85
  14   7   1    1.86    1.02
 -14  -7   1    0.43    0.80
  14   5  -1    3.41    0.80
  -5  14  -1    1.96    0.76
  14   5   1    3.81    0.97
 -14  -5   1    1.88    0.71
  -5  14   1    2.55    1.22
   3 -14  -1    1.45    2.19
 -14  -3  -1    4.12    1.78
  14   3  -1    1.17    1.92
  -3  14  -1    0.71    0.79
  -3  14   1    2.72    2.04
  14   3   1    1.13    1.00
 -14  -3   1    0.12    0.64
  -3  14   1    0.29    0.72
 -14  -3   1   -3.70    2.22
  14   3   1    3.55    1.71
  14   1  -1    6.10    1.25
  14   1  -1    1.97    2.16
 -14  -1  -1    7.54    0.83
  -1  14  -1    4.30    0.85
  -1  14  -1    0.34    2.32
 -14  -1  -1    6.74    2.00
  14   1   1    6.15    2.21
  -1  14   1    5.55    1.18
 -14  -1   1    5.05    0.77
  14   1   1    8.79    1.46
   1 -14   1   12.91    3.22
 -14  -1   1    2.47    2.40
  -1  14   1    1.82    2.26
  14  -1  -1    7.00    1.30
 -14   1  -1    8.06    0.98
   1  14  -1    6.14    0.94
   1  14  -1    3.01    2.00
 -14   1  -1    3.94    2.16
  -1 -14   1    7.35    2.08
   1  14   1    6.18    1.16
  14  -1   1    7.27    2.14
  14  -1   1    9.08    1.43
   1  14   1    6.27    2.17
 -14   1   1    4.21    2.37
 -14   3  -1    1.34    0.68
  -3 -14  -1    0.11    1.94
   3  14  -1    1.67    1.76
  14  -3  -1   -0.28    0.71
 -14   3  -1   -0.70    2.24
   3  14  -1    0.46    0.77
  14  -3  -1    2.04    2.01
   3  14   1    3.74    1.83
  -3 -14   1    4.13    2.08
  14  -3   1    2.55    1.94
  14  -3   1    0.17    0.77
 -14   3   1   -0.69    2.17
 -14   3   1    0.13    0.74
   3  14   1    0.17    0.67
 -14   5  -1    0.72    0.80
  -5 -14  -1    1.48    1.98
   5  14  -1   -0.31    0.75
 -14   5  -1   -2.28    2.63
  14  -5  -1   -0.22    0.80
  -5 -14   1   -0.81    2.15
 -14   5   1   -0.53    0.79
   5  14   1    2.13    1.86
   5  14   1    1.79    0.67
   5  14   1    0.40    0.70
  14  -5   1   -0.76    0.81
 -14   7  -1    5.87    1.04
  14  -7  -1    5.20    0.95
   7  14  -1    7.13    1.31
   7  14   1    4.39    0.87
  14  -7   1    5.57    0.99
 -14   7   1    4.19    0.98
 -14   9  -1   -0.74    1.06
  14  -9  -1    0.00    0.93
   9  14  -1    0.17    0.91
   9  14   1   -0.02    0.89
 -14   9   1   -1.24    0.91
 -14  11  -1    4.27    1.17
 -14  11   1    0.95    0.96
  11  14   1    2.51    1.08
 -14  13  -1    0.62    1.14
 -14  13   1    1.33    1.05
  13  14   1   -1.58    1.14
 -14  15  -1   -0.31    1.28
 -14  15   1    0.45    1.13
 -12  15  -1   -0.31    1.07
  15  12  -1   -1.69    1.02
  15  12   1   -2.05    1.16
 -12  15   1   -1.00    0.96
 -10  15  -1   -0.37    0.94
  15  10  -1    0.30    0.98
  15  10   1    1.95    1.13
 -10  15   1    0.24    0.92
  15   8  -1    3.29    0.90
  -8  15  -1    1.57    0.86
  -8  15   1    1.63    0.86
  -6  15  -1    0.10    0.84
  15   6  -1    1.62    0.87
  -6  15   1    0.43    0.83
  15   6   1    3.10    1.06
 -15  -6   1    0.92    0.83
  15   4  -1    8.84    2.75
  -4  15  -1    9.63    1.36
 -15  -4   1    1.35    2.99
 -15  -4   1    7.31    1.24
  -4  15   1    8.25    1.29
  15   2  -1   14.02    1.39
  -2  15  -1   11.62    1.42
 -15  -2   1    9.86    1.28
  -2  15   1   11.74    1.40
 -15   0  -1   28.34    1.72
   0  15  -1   25.63    2.15
 -15   0  -1   27.85    3.92
  15   0  -1   26.16    3.96
  15   0  -1   28.29    1.80
  15   0   1   22.43    4.07
   0  15   1   28.59    1.80
 -15   0   1   22.88    1.75
 -15   0   1   18.73    4.34
   0  15   1   24.13    4.27
  15   0   1   31.13    2.25
  15  -2  -1    0.91    0.84
  15  -2  -1    3.79    2.26
   2  15  -1    0.35    0.81
 -15   2  -1    1.74    0.71
 -15   2  -1    4.28    2.50
  -2 -15  -1   -3.01    2.08
   2  15   1   -0.12    2.03
  15  -2   1   -0.05    0.85
   2  15   1    0.79    0.80
 -15   2   1   -0.41    0.78
  15  -2   1    6.08    2.37
 -15   2   1   -0.76    2.59
 -15   4  -1    6.59    2.81
   4  15  -1   -0.04    0.84
  15  -4  -1    0.81    0.93
 -15   4  -1    2.09    0.85
 -15   4   1    0.12    0.84
  15  -4   1    1.04    0.91
   4  15   1    2.23    2.03
   4  15   1    0.52    0.78
  15  -6  -1    4.34    1.12
 -15   6  -1    4.70    1.08
   6  15  -1    4.83    0.99
  -6 -15   1    5.24    3.19
 -15   6   1    3.51    0.95
  15  -6   1    4.20    1.03
   6  15   1    7.52    1.34
 -15   8  -1    2.62    1.15
   8  15  -1    1.61    0.97
  15  -8  -1    1.44    1.06
   8  15   1    1.84    1.15
 -15   8   1    0.37    1.00
  15  -8   1    0.31    1.03
 -15  10  -1    1.13    1.16
  15 -10  -1    1.07    1.06
  10  15   1   -0.39    0.99
 -15  10   1    0.59    1.05
  12  15  -1   -0.44    1.08
 -15  12  -1    6.20    1.32
 -15  12   1    5.32    1.19
  12  15   1    1.10    1.15
 -15  14  -1    1.57    1.34
 -15  14   1    0.53    1.21
 -15  16  -1    1.41    1.46
 -15  16   1    1.48    1.84
  16  13  -1   -1.29    1.08
 -13  16  -1    1.11    1.24
 -13  16   1    0.50    1.05
  16  11  -1    5.52    1.11
 -11  16  -1    5.18    1.07
 -11  16   1    5.35    1.06
  16  11   1    6.92    1.24
  16   9  -1    0.60    0.98
  -9  16  -1    0.03    0.91
  -9  16   1    0.16    0.90
  16   9   1    1.17    1.11
  -7  16  -1   -0.46    0.86
  16   7  -1    0.79    0.87
  -7  16   1   -0.54    0.90
  16   7   1    2.05    1.10
  16   5  -1    8.32    1.45
  -5  16  -1    4.15    0.95
 -16  -5   1    3.41    1.01
  -5  16   1    4.45    0.98
  16   3  -1   15.38    1.43
  -3  16  -1   11.77    1.49
  16   3  -1   13.18    3.40
 -16  -3   1    2.58    5.25
  -3  16   1   10.37    1.53
 -16  -3   1    7.26    1.38
  16   1  -1    7.48    1.34
  -1  16  -1    4.49    0.98
  -1  16   1    6.62    1.34
 -16  -1   1    2.77    3.07
 -16  -1   1    4.04    0.98
   1  16  -1    9.79    1.44
  16  -1  -1   11.51    1.52
  16  -1  -1    7.64    2.86
   1  16   1   11.33    1.53
 -16   1   1    6.52    1.05
  16  -1   1   14.35    1.62
  16  -3  -1   18.41    1.66
   3  16  -1   17.80    1.65
 -16   3  -1   23.36    1.67
 -16   3  -1   32.21    5.70
  16  -3   1   19.60    4.43
 -16   3   1   13.98    1.69
   3  16   1   18.49    1.60
  16  -3   1   19.09    1.81
 -16   5  -1    4.03    1.18
   5  16  -1    3.24    1.02
  16  -5  -1    1.78    1.02
  16  -5   1    1.33    1.04
 -16   5   1    1.49    0.98
   5  16   1    3.36    0.93
 -16   7  -1    1.62    1.21
   7  16  -1    0.73    1.05
  16  -7  -1   -0.80    1.04
 -16   7   1    0.31    1.01
  16  -7   1   -0.67    1.50
   7  16   1    0.29    0.90
  16  -9  -1    4.59    1.16
 -16   9  -1    5.99    1.34
 -16   9   1    4.75    1.16
   9  16   1    1.87    1.04
 -16  11  -1    3.52    1.43
 -16  11   1    0.80    1.19
 -16  13  -1    0.54    1.42
 -16  13   1    1.07    1.20
 -16  15  -1    3.89    1.57
 -16  15   1    3.40    1.43
 -16  17  -1    3.95    1.49
 -16  17   1    4.11    1.34
 -14  17  -1    1.83    1.81
 -14  17   1    1.86    1.61
 -12  17  -1   -0.39    1.12
  17  12  -1   -2.00    1.06
 -12  17   1    0.12    1.11
 -10  17  -1    0.23    1.04
  17  10  -1    0.42    1.06
  17  10   1    0.84    1.19
 -10  17   1    1.34    1.05
  -8  17  -1    2.80    0.98
  17   8  -1    3.39    0.99
  -8  17   1    2.17    1.04
  17   8   1    4.72    1.19
  -6  17  -1    0.43    0.96
  17   6  -1    0.12    0.84
  17   6   1    2.08    1.06
  -6  17   1   -0.29    0.93
  17   4  -1    0.64    0.83
  -4  17  -1    0.31    0.95
  17   4   1    3.59    1.01
  -4  17   1    1.12    1.03
  -2  17  -1    0.13    0.99
  17   2  -1    1.45    0.89
  -2  17   1    0.85    0.98
  17   2   1    2.97    1.06
   0  17  -1    5.98    1.17
  17   0  -1    9.86    1.44
 -17   0   1    2.84    1.12
  17   0   1    9.60    1.55
   0  17   1    4.91    1.04
  17  -2  -1   12.12    1.53
   2  17  -1   10.59    1.57
   2  17   1   12.10    1.62
  17  -2   1   11.09    1.62
 -17   2   1    8.67    1.52
  17  -4  -1    1.14    1.01
   4  17  -1    0.71    1.04
  17  -4   1   -0.76    1.03
 -17   4   1    0.97    0.95
   6  17  -1   10.45    1.71
  17  -6  -1   10.97    1.77
 -17   6   1   11.94    1.72
  17  -6   1    9.26    1.34
  17  -8  -1   31.50    2.33
 -17   8  -1   34.46    2.35
 -17   8   1   31.71    2.34
  17  -8   1   30.06    2.87
 -17  10  -1    2.54    1.48
 -17  10   1    0.91    1.29
 -17  12  -1    3.40    1.55
 -17  12   1    1.80    1.34
 -17  14  -1    1.93    1.65
 -17  14   1    1.25    1.62
 -17  16  -1    2.38    1.54
 -17  16   1    2.73    1.32
 -15  18  -1    0.68    1.30
 -15  18   1    1.83    1.26
 -13  18  -1    1.80    1.44
  18  13  -1   -1.46    1.07
 -13  18   1    0.29    1.15
 -11  18  -1    3.01    1.17
  18  11  -1    1.07    1.07
  18  11   1    0.78    1.20
 -11  18   1    2.25    1.12
  -9  18  -1    2.51    1.11
  18   9  -1    0.60    0.92
  18   9   1    2.17    1.17
  -9  18   1    2.34    1.09
  -7  18  -1    1.34    1.05
  18   7  -1    0.77    0.87
  -7  18   1    1.53    1.11
  18   7   1    1.15    1.06
  18   5  -1    0.56    0.80
  -5  18  -1   -0.38    1.12
  -5  18   1    0.38    1.09
  18   5   1    1.51    1.09
  18   3  -1    0.55    0.84
  -3  18  -1   -0.39    1.05
  18   3   1    2.15    1.10
  -3  18   1    0.53    1.11
  18   1  -1    0.62    0.90
  -1  18  -1   -0.08    1.13
  18   1   1    1.38    0.99
  -1  18   1    0.35    1.12
  18  -1  -1   10.64    1.59
   1  18  -1   10.88    1.68
   1  18   1   11.81    1.64
  18  -1   1   10.67    1.72
   3  18  -1   15.06    1.86
  18  -3  -1   15.39    1.78
 -18   3   1   12.19    1.70
   3  18   1   15.98    1.84
  18  -3   1   13.92    1.80
   5  18  -1    1.09    1.21
  18  -5  -1   -0.30    1.07
 -18   5   1    0.34    1.13
  18  -5   1   -0.66    1.22
  18  -7  -1    1.05    1.23
   7  18  -1   -0.28    1.98
  18  -7   1   -1.36    1.24
 -18   7   1    1.64    1.27
  18  -9  -1    2.83    1.33
 -18   9   1    6.40    1.41
 -18  11  -1    5.03    1.70
 -18  11   1    3.06    1.40
 -18  13  -1    5.75    1.85
 -18  15  -1    5.65    1.81
 -18  15   1    3.38    1.43
  19  12  -1   -1.76    1.16
 -12  19  -1    1.42    1.19
 -12  19   1    0.93    1.13
 -10  19  -1    0.18    1.12
  19  10  -1   -1.11    0.95
 -10  19   1    0.54    1.21
  19  10   1   -2.25    1.08
  19   8  -1    4.24    1.04
  -8  19  -1    4.00    1.18
  -8  19   1    4.59    1.21
  19   8   1    3.63    1.09
  -6  19  -1    0.87    1.13
  19   6  -1    1.35    0.92
  19   6   1    2.56    1.19
  -6  19   1    0.88    1.20
  -4  19  -1    0.36    1.17
  19   4  -1    0.28    0.95
  19   4   1   -0.05    1.06
  -4  19   1   -0.98    1.19
  19   2  -1    2.44    0.99
  -2  19  -1    1.88    1.27
  -2  19   1    2.27    1.26
  19   2   1    2.23    1.10
  19   0  -1    2.40    1.03
   0  19  -1    3.45    1.26
 -19   0   1   -0.18    1.09
  19   0   1    2.93    1.15
   0  19   1    3.67    1.28
   2  19  -1    3.70    1.29
  19  -2  -1    1.02    1.01
   2  19   1    2.50    1.26
  19  -2   1    1.66    1.16
 -19   2   1    1.63    1.06
   4  19  -1    1.69    1.30
  19  -4  -1    0.55    1.20
 -19   4   1    2.57    1.22
  19  -4   1    0.86    1.23
  19  -6  -1   14.77    2.02
   6  19  -1   13.34    1.94
 -19   6   1   19.93    2.06
  19  -6   1   12.98    2.03
  19  -8  -1    6.29    1.45
 -19   8   1   11.50    2.09
 -19  10  -1   12.34    2.23
 -19  10   1   10.99    1.99
 -19  12  -1    6.15    2.10
 -19  12   1    4.96    1.84
 -11  20  -1    1.48    1.23
  20  11  -1   -1.86    0.97
 -11  20   1    1.45    1.21
  20   9  -1   -1.50    1.27
  -9  20  -1    0.92    1.40
  -9  20   1    1.62    1.25
  20   9   1   -1.40    1.33
  20   7  -1   -1.57    0.98
  -7  20  -1   -0.09    1.25
  20   7   1   -2.09    1.09
  -7  20   1    0.59    1.27
  20   5  -1    0.87    1.00
  -5  20  -1    0.70    1.29
  -5  20   1    0.85    1.36
  20   5   1   -0.32    1.09
  20   3  -1    1.44    0.93
  -3  20  -1    2.42    1.32
  -3  20   1    3.04    1.37
  20   3   1    1.27    1.06
  20   1  -1    0.07    1.02
  -1  20  -1    1.60    1.30
  20   1   1   -0.82    1.11
  -1  20   1    2.29    1.40
  20  -1  -1    2.98    1.17
   1  20  -1    2.83    1.35
  20  -1   1    1.41    1.20
   1  20   1    3.40    1.44
 -20   1   1    1.97    1.15
  20  -3  -1    0.01    1.19
   3  20  -1    0.58    1.34
 -20   3   1    1.48    1.24
  20  -3   1   -1.68    1.22
   5  20  -1    2.23    1.42
  20  -5  -1   -1.18    1.23
  20  -5   1   -1.83    1.29
 -20   5   1    4.06    1.42
 -20   7   1   12.24    2.05
 -20   9  -1   33.03    2.59
 -20   9   1   24.48    2.37
 -20  11  -1   17.46    3.05
 -10  21  -1    1.49    1.26
  21  10  -1   -0.29    1.07
 -10  21   1    2.24    1.27
  21  10   1   -1.06    1.08
  21   8  -1    0.71    0.98
  -8  21  -1    1.75    1.24
  21   8   1   -0.36    1.16
  -8  21   1    2.15    1.39
  -6  21  -1    1.72    1.31
  21   6  -1    1.71    1.08
  21   6   1    0.01    1.22
  -6  21   1    4.68    1.49
  -4  21  -1    0.24    1.39
  21   4  -1    0.14    0.89
  -4  21   1    1.38    1.46
  21   4   1   -1.40    1.09
  21   2  -1    0.17    0.96
  -2  21  -1   -0.39    1.38
  21   2   1   -1.17    1.11
  -2  21   1    0.60    1.50
   0  21  -1    2.02    1.44
  21   0  -1    0.84    1.14
   0  21   1    2.52    1.49
  21   0   1   -2.15    1.07
   2  21  -1    0.46    1.43
  21  -2  -1   -0.76    1.13
  21  -2   1   -1.71    1.28
   4  21  -1    4.45    1.54
  21  -4  -1    3.19    1.26
  21  -4   1   -0.08    1.34
 -21  10  -1   20.11    2.42
 -21  10   1   13.10    2.12
  22   7  -1   -0.63    0.92
  -7  22  -1    2.24    1.30
  22   7   1   -1.30    0.94
  -7  22   1    2.64    1.48
  22   5  -1   -1.01    0.87
  -5  22  -1    1.25    1.48
  22   5   1   -1.64    0.97
  -5  22   1    2.80    2.10
  -3  22  -1    0.29    1.76
  22   3  -1   -0.85    1.10
  -3  22   1    4.36    1.65
  22   3   1   -0.34    1.45
  22   1  -1   -1.56    1.39
  -1  22  -1    2.80    1.55
  -1  22   1    2.38    1.68
  22   1   1   -1.47    1.15
  22  -1  -1   -1.27    1.18
   1  22  -1    2.30    1.53
  22  -1   1   -2.40    1.21
   1  22   1    0.95    1.79
  22  -3  -1    0.37    1.33
   3  22  -1    3.63    1.59
  22  -3   1   -1.01    1.33
  23   4  -1   -1.39    1.05
  -4  23  -1    1.54    1.56
  -4  23   1    2.92    1.65
  23   4   1   -0.43    0.97
  23   2  -1   -0.40    1.09
  -2  23  -1    0.65    1.59
  -2  23   1    1.11    1.72
  23   2   1   -1.72    1.10
   0  23  -1    2.01    1.68
  23   0  -1   -1.02    1.09
   0  23   1    4.69    2.33
   2  23  -1    1.60    1.66
  23  -2  -1   -1.06    1.19
  23  -4  -1   -2.87    1.30
  23  -4   1   -2.27    1.40
   0   0  -2   -0.25    0.37
   0   0  -2    0.22    0.35
   0   0   2   -0.23    0.93
   1   1  -2  100.41    4.97
   1  -1  -2  100.80    4.98
   1  -1  -2   97.76    4.37
  -1  -1  -2   99.35    4.34
  -1  -1  -2   99.30    4.36
  -1   1  -2   94.28    4.34
   1   1  -2   98.21    4.35
  -1   1  -2   97.64    4.34
  -1  -1  -2   98.66    4.74
   1   1  -2   97.88    4.36
   1  -1   2  102.40    4.86
   1  -1   2  104.82    4.86
  -1   1   2  100.36    4.93
  -1  -1   2  101.03    4.96
   1   1   2  103.69    4.77
   0  -2  -2   57.45    3.08
   0  -2  -2   52.57    2.39
   0   2  -2   50.44    2.37
  -2   0  -2   50.47    2.33
   2   0  -2   49.73    3.18
   2   0  -2   53.45    2.40
  -2   0  -2   53.07    2.37
   0   2  -2   51.32    2.35
   2   0  -2   54.57    2.39
   0  -2   2   51.03    3.86
   0   2   2   56.50    2.98
   2   0   2   58.82    2.88
   0   2   2   49.28    2.34
   0  -2   2   51.47    3.15
  -2   0   2   50.75    3.22
   2   0   2   53.16    2.87
  -2   2  -2   18.30    2.03
  -2   2  -2   15.44    0.92
   2   2  -2   16.41    0.93
  -2  -2  -2   14.86    1.41
   2  -2  -2   16.23    0.99
   2  -2  -2   17.18    2.07
  -2  -2  -2   16.68    0.99
   2   2  -2   15.46    0.97
  -2   2  -2   16.53    0.87
   2   2  -2   18.34    2.15
   2  -2   2   13.82    1.81
  -2   2   2   15.57    0.93
   2   2   2   16.48    1.43
   2   2   2   18.50    0.80
  -2   2   2   14.70    2.10
  -1   3  -2   14.82    2.17
  -1   3  -2   17.97    0.87
  -1   3  -2   17.34    1.01
  -3  -1  -2   17.60    1.03
  -3  -1  -2   16.34    0.84
   1  -3  -2   20.72    2.07
   3   1  -2   17.30    0.99
   3   1  -2   15.37    2.09
   3   1  -2   17.43    1.06
   1  -3  -2   17.87    1.02
   3   1   2   17.34    1.42
  -1   3   2   17.47    0.96
   1  -3   2   14.66    2.12
  -3  -1   2   17.54    2.28
   3   1   2   19.39    1.39
  -1   3   2   19.58    2.07
   3  -1  -2    6.81    0.72
   1   3  -2    5.42    0.69
   3  -1  -2    9.47    2.16
   1   3  -2    5.97    0.57
  -1  -3  -2    6.06    0.72
  -1  -3  -2    7.06    1.41
  -3   1  -2    7.20    1.65
  -3   1  -2    6.99    0.62
  -3   1  -2    5.78    0.58
  -3   1   2    6.66    1.56
   3  -1   2    7.72    1.51
  -3   1   2    4.72    0.69
  -1  -3   2    7.91    1.64
  -1  -3   2    6.41    1.43
  -3  -3  -2    9.37    0.92
  -3  -3  -2    9.57    1.00
   3  -3  -2    9.76    0.79
   3   3  -2    9.92    0.81
   3  -3  -2    8.61    2.13
   3   3  -2    9.33    0.74
  -3   3  -2    9.13    0.75
  -3   3  -2   12.34    2.09
  -3  -3   2   13.34    2.16
  -3   3   2    9.86    0.80
  -3   3   2    8.96    2.09
   3  -3   2    8.78    1.99
   2  -4  -2   81.57    4.40
   4   2  -2   79.82    3.54
   2  -4  -2   79.89    3.55
  -2   4  -2   79.35    3.55
  -2   4  -2   76.34    3.48
  -2   4  -2   81.72    4.42
   4   2  -2   80.38    4.38
  -4  -2   2   81.05    4.49
   2  -4   2   79.00    4.41
  -2   4   2   80.86    3.55
  -2   4   2   81.31    4.35
   0   4  -2    0.98    0.43
   4   0  -2    1.35    0.46
   4   0  -2   -0.31    1.29
  -4   0  -2    1.33    0.31
   0  -4  -2    1.81    1.13
   0   4  -2    1.35    0.28
   0  -4  -2    1.44    0.46
   0   4  -2    0.25    1.34
  -4   0  -2    1.30    0.91
  -4   0   2    0.61    1.17
   0  -4   2    0.28    1.27
  -4   0   2    0.51    0.49
  -4   2  -2    2.84    0.53
   4  -2  -2    3.20    1.42
  -4   2  -2    2.79    1.19
   2   4  -2    3.26    0.53
  -2  -4  -2    3.87    0.95
  -4   2   2    3.36    1.52
   2   4   2    5.93    1.37
  -2  -4   2    2.37    1.37
  -2  -4   2    2.98    1.36
   4  -2   2    0.71    1.14
   4  -4  -2  107.78    4.79
  -4   4  -2   96.66    4.91
   4   4  -2  108.12    4.79
   4  -4  -2  110.97    5.69
   4   4  -2  107.52    4.77
  -4   4  -2  110.34    5.59
  -4  -4   2  117.07    5.73
   4  -4   2  108.60    5.63
  -4  -4   2  117.88    5.68
  -4   4   2  104.24    4.79
  -4   4   2  112.40    5.73
  -3   5  -2    3.92    1.62
   5   3  -2    3.51    0.72
   5   3  -2    3.33    0.56
  -3   5  -2    3.25    0.70
   3  -5  -2    2.92    0.46
   5   3  -2    3.81    1.46
   3  -5  -2    3.65    1.48
  -3   5   2    3.53    1.59
   3  -5   2    3.99    1.53
  -5  -3   2    2.69    1.46
  -3   5   2    3.88    0.73
  -5  -1  -2  331.53   14.51
  -1   5  -2  352.58   15.25
  -5  -1  -2  365.38   14.71
   1  -5  -2  321.26   14.55
  -1   5  -2  330.72   14.57
  -1   5  -2  320.74   14.51
   5   1  -2  340.38   15.20
   1  -5  -2  352.18   15.15
   5   1  -2  315.29   14.55
   1  -5   2  353.09   15.24
  -1   5   2  333.36   15.09
   5   1   2  344.24   14.71
  -1   5   2  317.69   14.55
  -5  -1   2  349.53   15.26
   5  -1  -2  150.40    6.85
   1   5  -2  154.90    6.86
   1   5  -2  151.57    6.81
  -5   1  -2  158.90    7.28
  -5   1  -2  148.93    6.82
   1   5  -2  163.34    7.61
  -1  -5  -2  166.36    7.36
   5  -1  -2  157.68    7.64
  -1  -5   2  165.32    7.65
   1   5   2  163.07    7.34
   1   5   2  155.57    6.83
  -5   1   2  164.77    7.69
  -5   1   2  149.78    6.86
   5  -1   2  158.71    7.29
   3   5  -2    2.56    0.50
   5  -3  -2    2.58    1.57
  -3  -5  -2    2.20    0.49
  -5   3  -2    1.39    1.26
   3   5  -2    2.32    0.38
  -5   3  -2    2.01    0.43
   5  -3  -2    2.42    0.52
  -3  -5  -2    2.20    0.87
   5  -3   2    1.41    1.30
  -5   3   2    1.96    0.48
  -3  -5   2    0.89    1.32
  -3  -5   2    2.22    1.45
   3   5   2    2.96    0.40
   3   5   2    1.85    0.87
  -5   3   2    1.86    1.50
   5  -5  -2   83.44    4.88
   5   5  -2   83.75    3.73
  -5   5  -2   84.22    3.72
  -5   5  -2   84.30    4.76
   5  -5  -2   85.78    3.72
   5   5  -2   82.48    3.70
   5  -5   2   77.89    3.64
   5  -5   2   82.66    4.76
  -5   5   2   81.83    3.73
  -5  -5   2   82.54    4.74
  -5  -5   2   87.05    4.71
  -5   5   2   84.44    4.84
  -4   6  -2   93.15    5.06
   4  -6  -2   90.04    5.03
   6   4  -2   91.52    3.99
   6   4  -2   89.78    3.96
   4  -6  -2   89.89    3.96
  -4   6  -2   92.22    3.99
   4  -6   2   77.35    3.87
  -4   6   2   90.09    5.06
   4  -6   2   90.89    5.03
  -6  -4   2   88.98    5.03
  -4   6   2   89.79    3.98
   6   2  -2   20.77    1.21
  -2   6  -2   19.35    1.16
   2  -6  -2   18.15    2.49
   6   2  -2   19.49    2.44
  -2   6  -2   18.97    2.53
   6   2  -2   20.77    1.15
   2  -6  -2   18.60    1.09
  -2   6   2   18.91    2.50
  -2   6   2   18.82    1.12
   2  -6   2   13.55    2.49
  -6  -2   2   20.94    2.48
  -6   0  -2  109.37    5.05
   0  -6  -2  106.17    4.68
  -6   0  -2  100.06    4.63
   0   6  -2  106.32    4.71
   0   6  -2  110.38    5.67
   6   0  -2  105.00    5.59
   6   0  -2  106.18    4.70
   0   6  -2  101.92    4.61
   0  -6  -2  110.60    5.46
   0   6   2  109.39    5.44
   6   0   2  107.58    5.07
  -6   0   2  105.00    4.70
  -6   0   2  106.51    5.66
   0  -6   2  110.82    5.72
   0   6   2  106.81    4.68
  -6   2  -2    0.75    0.39
   2   6  -2    1.14    1.41
   2   6  -2    0.66    0.31
  -2  -6  -2    1.58    1.04
  -2  -6  -2    1.09    0.48
   2   6  -2    1.01    0.52
  -6   2  -2    0.21    1.11
   6  -2  -2    0.94    0.44
   6  -2  -2    0.35    1.27
   2   6   2    1.32    0.37
   6  -2   2    0.33    1.21
  -6   2   2    0.41    1.47
   2   6   2    1.17    1.08
  -6   2   2    0.78    0.45
  -2  -6   2    0.52    1.33
   4   6  -2   74.36    3.34
  -6   4  -2   74.64    4.26
   6  -4  -2   75.44    3.33
  -4  -6  -2   78.62    3.65
  -6   4  -2   76.35    3.33
   6  -4  -2   71.75    4.42
   4   6  -2   72.60    3.30
   4   6   2   71.24    3.23
   6  -4   2   74.98    4.38
   6  -4   2   71.51    3.28
  -6   4   2   73.77    3.34
  -4  -6   2   76.79    4.41
   4   6   2   73.38    3.62
  -4  -6   2   75.13    4.47
  -6   4   2   71.01    4.47
  -6   6  -2   15.60    1.14
  -6   6  -2   15.73    2.53
   6   6  -2   16.67    1.08
   6  -6  -2   14.48    2.83
   6   6  -2   17.23    1.06
   6  -6  -2   15.95    1.05
   6  -6   2   14.50    2.79
  -6   6   2   19.02    1.17
  -6   6   2   16.07    2.70
   6  -6   2   13.62    0.94
   7   5  -2    6.82    0.80
   5  -7  -2    5.44    0.76
  -5   7  -2    4.46    0.87
   5  -7  -2    7.62    1.97
   7   5  -2    5.11    0.85
  -5   7  -2    3.72    1.64
  -5   7   2    5.85    1.80
   5  -7   2    3.95    0.34
   5  -7   2    5.07    1.66
  -3   7  -2   31.09    1.61
   7   3  -2   31.98    2.83
  -3   7  -2   24.22    3.91
   7   3  -2   31.18    1.58
   7   3  -2   31.25    1.63
   3  -7  -2   31.04    1.54
   3  -7  -2   29.11    3.06
   3  -7   2   22.83    4.14
  -7  -3   2   31.58    2.87
  -3   7   2   30.38    2.90
  -3   7   2   32.48    1.63
  -1   7  -2   16.98    2.62
  -1   7  -2   17.42    1.12
   1  -7  -2   16.98    1.02
   7   1  -2   17.67    1.09
  -7  -1  -2   16.30    0.83
  -7  -1  -2   16.00    1.45
   1  -7  -2   16.57    2.40
   7   1  -2   14.31    2.43
  -1   7   2   17.81    1.07
   7   1   2   17.86    1.51
  -1   7   2   17.06    2.47
  -7  -1   2   18.17    2.55
  -7  -1   2   17.04    1.06
   1  -7   2   16.93    2.59
  -7   1  -2  134.09    6.40
   1   7  -2  137.10    5.94
   1   7  -2  132.88    6.80
  -1  -7  -2  142.41    6.67
  -7   1  -2  131.31    5.87
  -1  -7  -2  138.77    5.91
   1   7  -2  129.99    5.84
   7  -1  -2  137.10    6.85
   7  -1  -2  132.97    5.93
  -7   1   2  133.71    6.89
   1   7   2  137.78    6.62
   7  -1   2  133.31    6.47
  -1  -7   2  136.67    6.91
  -7   1   2  134.37    5.93
   1   7   2  136.03    5.90
   3   7  -2   16.48    1.08
  -7   3  -2   15.94    2.24
  -7   3  -2   15.96    0.98
   7  -3  -2   14.93    2.52
   3   7  -2   16.20    0.93
  -3  -7  -2   16.81    1.93
   7  -3  -2   15.16    1.10
  -3  -7   2   17.79    2.54
   3   7   2   15.82    0.88
   7  -3   2   16.83    2.31
  -7   3   2   16.90    1.08
   3   7   2   14.38    1.87
   7  -3   2   15.53    1.01
  -7   3   2   16.25    2.64
   5   7  -2   36.87    1.84
   5   7  -2   37.38    1.81
  -5  -7  -2   39.66    2.27
  -7   5  -2   37.67    3.17
   7  -5  -2   35.33    3.27
   7  -5  -2   37.42    1.84
  -7   5  -2   38.32    1.86
  -7   5   2   39.50    1.90
  -7   5   2   34.33    3.32
   7  -5   2   36.46    1.79
   5   7   2   35.29    1.67
  -5  -7   2   37.87    3.28
   5   7   2   36.52    2.18
   7  -5   2   37.64    3.22
  -5  -7   2   36.54    3.11
  -7   7  -2    7.17    0.99
   7  -7  -2    7.75    2.02
   7   7  -2    7.74    0.95
   7   7  -2    8.05    0.92
  -7   7  -2    6.37    1.81
   7  -7  -2    8.16    0.91
  -7  -7   2    8.34    1.81
  -7   7   2   10.12    1.02
  -7   7   2    7.57    1.94
   7  -7   2    7.86    1.94
  -7  -7   2    9.02    1.93
   8   6  -2    1.46    0.54
   6  -8  -2    1.50    1.66
   6  -8  -2    1.12    0.49
  -6   8  -2    0.78    0.60
   8   6  -2    1.53    0.59
  -6   8  -2    2.63    1.75
  -6   8   2    1.03    1.74
  -6   8   2    0.93    0.63
   6  -8   2    2.40    1.84
   6  -8   2    0.61    0.26
  -8  -6   2    1.13    1.58
  -8  -6   2    1.30    1.63
  -4   8  -2   86.24    5.14
   8   4  -2   86.81    3.87
   4  -8  -2   86.70    3.81
   4  -8  -2   83.82    5.07
   8   4  -2   82.31    4.90
  -4   8  -2   89.49    3.88
   8   4  -2   85.57    3.84
  -4   8   2   89.39    3.88
   4  -8   2   79.60    5.06
  -8  -4   2   85.55    5.00
  -4   8   2   79.80    5.10
  -2   8  -2  113.03    6.09
   2  -8  -2  112.14    4.92
  -2   8  -2  118.78    4.98
   8   2  -2   99.76    6.53
   8   2  -2  112.56    4.96
   2  -8  -2  111.55    6.06
  -2   8   2  112.73    4.96
  -8  -2   2  112.92    4.95
  -2   8   2  112.29    6.04
   2  -8   2  109.71    6.14
   8   0  -2  247.27   10.97
   0   8  -2  257.33   10.99
  -8   0  -2  240.44   10.92
   0   8  -2  252.96   11.88
   0  -8  -2  247.98   10.95
   0  -8  -2  254.49   11.77
  -8   0  -2  256.19   11.38
   0   8   2  260.06   11.76
   0  -8   2  258.26   11.94
   8   0   2  261.80   11.43
   0   8   2  253.67   10.96
  -8   0   2  247.95   10.98
  -2  -8  -2    7.99    0.86
   2   8  -2    6.54    1.54
   2   8  -2    7.69    0.90
   8  -2  -2    8.35    1.87
   2   8  -2    7.30    0.61
  -2  -8  -2    8.68    2.03
  -8   2  -2   10.48    1.73
   8  -2  -2    8.61    0.89
  -8   2  -2    7.83    0.73
   8  -2   2    7.33    0.87
   2   8   2    7.93    1.54
   8  -2   2    9.22    1.64
  -2  -8   2    8.36    1.93
  -8   2   2    8.18    1.81
   2   8   2    7.04    0.70
  -8   2   2    8.12    0.87
   8  -4  -2   81.12    3.52
  -8   4  -2   80.32    4.78
   4   8  -2   79.94    3.54
  -4  -8  -2   78.86    4.16
  -8   4  -2   80.55    3.51
   8  -4  -2   72.69    4.68
  -4  -8   2   78.81    4.69
   4   8   2   76.91    4.10
   8  -4   2   75.33    4.58
  -4  -8   2   76.00    4.64
   8  -4   2   77.12    3.50
  -8   4   2   77.94    4.88
  -8   4   2   79.32    3.54
   4   8   2   73.75    3.43
   8  -6  -2    0.95    0.50
  -8   6  -2    1.02    1.50
  -8   6  -2    1.18    0.58
  -6  -8  -2    1.40    0.92
   6   8  -2    2.03    0.50
   8  -6  -2    1.14    1.60
   6   8  -2    1.38    0.54
  -8   6   2    1.17    1.81
  -6  -8   2    2.75    1.57
   6   8   2    1.47    0.30
  -6  -8   2    1.20    1.58
   8  -6   2   -0.23    0.82
   8  -6   2    1.69    1.71
   8   8  -2    0.14    0.55
   8   8  -2   -0.18    0.59
   8  -8  -2   -0.45    1.73
  -8   8  -2    2.19    1.71
   8  -8  -2    0.08    0.53
  -8   8  -2   -0.04    0.64
  -8   8   2   -0.21    1.90
   8  -8   2    0.62    1.80
  -8  -8   2   -0.61    1.59
  -8  -8   2   -0.30    1.84
  -8   8   2    0.83    0.71
   9   7  -2    5.04    0.94
  -7   9  -2    5.15    2.17
   9   7  -2    5.45    0.97
   7  -9  -2    7.75    2.12
  -7   9  -2    5.27    1.05
   7  -9  -2    4.96    0.88
  -9  -7   2    6.89    1.93
  -7   9   2    3.83    0.71
  -7   9   2    3.18    2.00
  -9  -7   2    5.35    1.96
   7  -9   2    5.09    2.02
   9   5  -2    0.92    0.53
   5  -9  -2    2.90    1.86
  -5   9  -2    0.67    0.58
  -5   9  -2    0.10    1.79
   9   5  -2    1.11    0.61
   5  -9  -2    0.62    0.49
   5  -9   2    1.71    1.63
  -5   9   2    0.74    0.66
  -9  -5   2    0.69    1.61
  -5   9   2   -0.15    1.70
  -3   9  -2  129.34    5.51
   3  -9  -2  128.07    5.47
  -3   9  -2  120.42    6.65
   3  -9  -2  118.34    6.68
   9   3  -2  122.57    6.52
   9   3  -2  128.09    5.50
  -3   9   2  121.12    6.62
   3  -9   2  119.16    6.64
  -9  -3   2  127.87    5.49
  -3   9   2  127.38    5.51
  -9  -3   2  121.40    6.65
  -1   9  -2   17.22    1.22
   1  -9  -2   15.66    2.64
  -9  -1  -2   17.94    1.78
   9   1  -2   17.45    2.72
  -1   9  -2   18.37    2.75
  -9  -1  -2   17.08    0.89
   1  -9  -2   16.83    1.08
   9   1  -2   19.14    1.22
  -1   9   2   17.16    1.16
  -9  -1   2   19.40    2.70
   1  -9   2   15.66    2.88
  -1   9   2   15.16    2.65
   9   1   2   19.11    1.86
  -9  -1   2   17.80    1.12
   9   1   2   16.44    1.26
  -9   1  -2    4.71    1.40
   1   9  -2    1.03    1.56
   1   9  -2    4.72    0.67
  -1  -9  -2    4.59    1.59
   9  -1  -2    3.80    0.58
   1   9  -2    3.09    0.38
  -1  -9  -2    3.93    0.78
   9  -1  -2    3.16    1.70
  -9   1  -2    4.23    0.63
   9  -1   2    3.70    0.61
  -1  -9   2    2.42    1.86
  -9   1   2    4.51    0.78
   9  -1   2    4.19    1.37
   1   9   2    4.97    1.61
  -9   1   2    5.11    1.73
   1   9   2    4.52    0.59
   3   9  -2   14.57    1.10
  -3  -9  -2   14.56    2.29
   3   9  -2   11.88    2.49
   3   9  -2   13.78    0.88
   9  -3  -2   14.82    2.71
  -9   3  -2   15.94    2.58
  -9   3  -2   14.13    1.01
   9  -3  -2   14.24    1.06
   9  -3   2   14.28    1.10
   3   9   2   12.62    0.90
  -3  -9   2   13.09    2.75
   3   9   2   14.18    2.16
  -9   3   2   14.24    1.08
  -9   3   2   11.03    2.58
   9  -3   2   13.42    2.45
   9  -5  -2    4.08    1.74
  -9   5  -2    2.85    0.62
  -9   5  -2    2.79    1.94
   5   9  -2    3.51    0.63
   9  -5  -2    3.50    0.61
   5   9  -2    2.99    0.50
  -5  -9  -2    2.44    1.26
  -5  -9   2    4.26    1.83
  -5  -9   2    1.51    1.65
   5   9   2    3.45    1.14
  -9   5   2    1.85    1.69
  -9   5   2    4.58    0.97
   5   9   2    3.18    0.54
   9  -5   2    2.96    1.68
   9  -5   2    2.47    0.58
  -7  -9  -2   -0.19    0.90
  -9   7  -2    0.42    0.63
   7   9  -2    0.06    0.54
   9  -7  -2    1.10    1.58
   9  -7  -2    0.25    0.53
  -7  -9  -2    0.76    0.89
  -9   7  -2    2.19    1.78
   7   9  -2   -0.06    0.58
  -9   7   2    0.99    0.65
  -9   7   2   -2.28    1.78
  -7  -9   2    2.04    1.62
   9  -7   2   -1.10    1.64
  -7  -9   2   -2.51    1.69
  -9   9  -2    3.70    0.78
   9   9  -2    4.21    0.75
   9  -9  -2    3.33    0.67
   9   9  -2    2.82    0.67
   9  -9  -2    0.22    2.08
  -9   9  -2    4.40    1.90
  -9   9   2    3.99    0.83
  -9  -9   2    3.23    1.94
  -9  -9   2    5.98    2.08
   9  -9   2   -0.46    1.89
  -9   9   2    2.37    2.16
  10   8  -2    0.97    0.66
   8 -10  -2    2.66    1.90
   8 -10  -2    0.74    0.57
  10   8  -2    0.70    0.66
  -8  10  -2    0.02    0.68
  -8  10   2    0.18    0.74
  10   8   2    0.03    0.81
 -10  -8   2    1.08    1.78
   8 -10   2    0.19    1.88
  -8  10   2    4.65    2.06
   6 -10  -2    0.57    0.52
  -6  10  -2    2.25    1.89
   6 -10  -2    1.34    1.87
  10   6  -2    1.29    0.61
  -6  10  -2    0.38    0.64
   6 -10   2    0.94    1.94
 -10  -6   2   -1.05    1.84
  -6  10   2    0.25    0.69
  10   6   2    1.32    0.78
  -6  10   2    0.46    1.80
 -10  -6   2   -0.16    1.82
  -4  10  -2    1.47    0.68
  10   4  -2   -0.22    1.61
  10   4  -2    1.71    0.60
  -4  10  -2    0.80    1.70
   4 -10  -2    1.70    1.82
   4 -10  -2    1.31    0.49
 -10  -4   2    1.84    0.56
  -4  10   2    1.08    0.63
 -10  -4   2    1.06    1.66
  -4  10   2    3.94    1.75
   4 -10   2    4.14    1.80
  10   4   2    0.93    0.67
   2 -10  -2    1.65    1.74
  -2  10  -2    2.19    1.65
 -10  -2  -2    3.78    0.93
  10   2  -2    4.27    0.65
   2 -10  -2    2.61    0.50
  10   2  -2    1.67    1.57
  -2  10  -2    2.60    0.71
  10   2   2    2.63    0.64
 -10  -2   2    2.54    0.53
  10   2   2    3.08    1.00
  -2  10   2    2.51    0.64
 -10  -2   2    3.66    1.85
  -2  10   2    3.74    1.83
   2 -10   2    2.03    1.66
 -10   0  -2    0.90    0.36
   0  10  -2   -0.08    1.63
   0 -10  -2   -0.45    1.84
   0  10  -2   -0.01    0.64
  10   0  -2    0.62    0.58
   0 -10  -2    0.16    0.48
 -10   0  -2    1.61    1.16
  10   0  -2   -0.21    1.50
   0 -10   2   -0.59    1.84
   0  10   2    0.07    2.39
 -10   0   2    1.06    1.53
   0  10   2   -0.49    0.54
  10   0   2    0.89    1.20
  10   0   2    0.10    0.62
 -10   0   2    0.15    0.53
  -2 -10  -2   50.80    3.70
   2  10  -2   48.09    2.29
   2  10  -2   54.68    2.48
  10  -2  -2   54.49    2.47
   2  10  -2   47.02    3.73
  10  -2  -2   45.17    3.78
 -10   2  -2   53.97    3.60
 -10   2  -2   52.58    2.38
  -2 -10   2   51.71    4.11
  10  -2   2   49.19    3.57
   2  10   2   49.78    3.58
 -10   2   2   46.05    3.96
  10  -2   2   53.50    2.50
 -10   2   2   54.90    2.46
   2  10   2   51.71    2.39
  10  -4  -2    1.97    1.63
   4  10  -2    4.05    0.65
   4  10  -2    2.95    0.48
 -10   4  -2    3.27    0.61
  10  -4  -2    3.01    0.62
  -4 -10  -2    1.65    1.43
   4  10   2    4.01    0.65
 -10   4   2    3.64    0.67
  -4 -10   2    3.48    1.93
 -10   4   2    1.73    1.73
  10  -4   2    2.89    0.61
  10  -4   2    2.39    1.73
   4  10   2    4.62    1.42
   6  10  -2    2.95    0.62
  10  -6  -2    3.53    0.66
  10  -6  -2    3.99    1.80
   6  10  -2    2.71    0.56
 -10   6  -2    3.48    0.69
 -10   6  -2    2.44    2.14
 -10   6   2    3.76    0.74
  10  -6   2    1.36    1.77
  -6 -10   2    4.67    1.85
 -10   6   2    1.51    1.80
   6  10   2    3.43    0.61
  -6 -10   2    4.06    1.81
   8  10  -2   10.75    1.13
 -10   8  -2   14.06    3.04
  10  -8  -2   13.31    1.19
 -10   8  -2   12.11    1.23
  10  -8  -2    7.62    2.06
  -8 -10  -2   13.45    1.75
   8  10  -2   12.72    1.17
  10  -8   2    6.99    2.07
 -10   8   2   12.91    1.32
  -8 -10   2   16.15    2.94
  10  -8   2    9.14    1.11
  -8 -10   2   20.13    3.14
 -10   8   2    7.36    2.37
  10 -10  -2    2.07    0.72
  10  10  -2    2.51    0.82
  10  10  -2    2.06    0.77
 -10  10  -2    2.10    0.80
 -10 -10   2    3.33    2.21
 -10  10   2    1.29    0.79
  10  10   2    2.22    0.83
 -10 -10   2    3.33    2.25
  11   9  -2    1.27    0.79
   9 -11  -2    0.86    0.67
  11   9  -2    0.63    0.73
 -11  -9   2    4.04    2.20
  -9  11   2    0.89    0.79
 -11  -9   2    4.48    2.22
  -7  11  -2    2.09    1.96
   7 -11  -2   -1.25    2.10
  11   7  -2    1.07    0.65
  -7  11  -2    0.69    0.73
   7 -11  -2    1.50    0.61
  -7  11   2    5.63    2.05
 -11  -7   2    1.59    1.98
  11   7   2    1.68    0.81
   7 -11   2   -3.62    1.96
  -7  11   2    0.91    0.74
 -11  -7   2    2.48    1.89
  -5  11  -2    5.17    2.16
   5 -11  -2    6.68    2.24
   5 -11  -2    9.19    0.96
  11   5  -2    8.89    1.09
  -5  11  -2    8.67    1.13
  -5  11   2    7.66    1.11
  11   5   2    9.17    1.33
 -11  -5   2    9.45    1.00
   5 -11   2   11.58    2.98
 -11  -5   2    6.64    2.24
  -5  11   2    9.37    2.17
  11   3  -2   11.69    1.12
   3 -11  -2   10.22    0.94
  -3  11  -2    8.58    2.08
  -3  11  -2   11.25    1.16
  11   3  -2   11.36    2.69
   3 -11  -2    6.36    2.15
 -11  -3   2   10.66    0.97
  -3  11   2   11.36    2.94
   3 -11   2    8.88    2.07
 -11  -3   2    7.80    2.15
  -3  11   2    9.60    1.08
  11   3   2   12.21    1.30
   1 -11  -2   28.50    1.55
   1 -11  -2   26.09    3.17
 -11  -1  -2   29.29    2.32
  11   1  -2   30.53    1.67
 -11  -1  -2   28.22    1.37
  -1  11  -2   29.89    1.67
  -1  11  -2   22.44    3.22
  11   1  -2   30.18    3.30
  11   1   2   28.98    2.56
   1 -11   2   32.22    3.41
 -11  -1   2   29.27    1.59
  11   1   2   29.87    1.72
  -1  11   2   27.56    3.17
 -11  -1   2   26.74    3.06
  -1  11   2   28.70    1.62
  -1 -11  -2  116.30    6.55
 -11   1  -2  121.63    5.35
   1  11  -2  109.15    6.58
  11  -1  -2  131.02    5.43
 -11   1  -2  122.07    6.31
   1  11  -2  128.28    5.44
  11  -1  -2  117.03    6.68
  11  -1   2  119.78    6.32
 -11   1   2  129.46    5.43
 -11   1   2  120.53    6.75
   1  11   2  119.94    6.62
  11  -1   2  126.67    5.43
   1  11   2  122.29    5.39
  -1 -11   2  115.67    6.74
  11  -3  -2  105.20    4.37
   3  11  -2   83.83    5.58
 -11   3  -2   84.58    6.30
 -11   3  -2  102.40    4.34
   3  11  -2  103.47    4.38
   3  11  -2   95.22    4.26
  -3 -11  -2   86.62    5.41
   3  11   2   99.29    4.31
  -3 -11   2   96.04    5.81
 -11   3   2   92.59    5.85
 -11   3   2  104.39    4.38
   3  11   2   96.34    5.44
  11  -3   2   98.69    4.37
  -5 -11  -2   -1.40    1.40
   5  11  -2    0.00    0.49
 -11   5  -2    0.79    0.63
  11  -5  -2   -0.23    0.63
  11  -5  -2   -0.19    1.82
 -11   5  -2    4.49    1.89
   5  11  -2    0.21    0.65
  11  -5   2    0.17    1.75
 -11   5   2   -2.03    1.81
   5  11   2    0.18    0.43
  -5 -11   2    0.28    1.58
   5  11   2    2.21    1.35
  -5 -11   2    2.53    1.98
  11  -5   2   -1.11    0.62
 -11   5   2    0.71    0.70
 -11   7  -2    4.49    2.54
   7  11  -2    4.92    0.69
  -7 -11  -2    2.33    1.53
 -11   7  -2    5.58    1.15
  11  -7  -2    6.68    1.13
  11  -7  -2    4.19    1.87
   7  11  -2    5.37    1.07
  -7 -11   2    6.95    2.09
 -11   7   2    2.11    2.01
  -7 -11   2    6.01    2.28
 -11   7   2    6.83    1.25
 -11   9  -2    1.64    0.81
   9  11  -2    2.03    0.81
   9  11  -2    0.89    0.71
  11  -9  -2    1.75    0.73
 -11   9   2    1.30    0.78
  11  -9   2   -2.68    2.21
  -9 -11   2    2.86    2.19
   9  11   2    1.91    0.88
  -9 -11   2    3.49    2.41
  11 -11  -2    0.47    0.82
  11  11  -2   -0.66    0.88
  11  11  -2   -0.73    0.81
 -11  11  -2   -0.58    0.88
  11  11   2    0.64    0.93
 -11 -11   2   -1.22    2.66
 -11 -11   2    0.40    2.71
 -11  11   2   -0.67    0.83
  12  10  -2    0.69    0.82
 -10  12  -2    0.89    0.85
  12  10  -2    1.38    1.00
  10 -12  -2    2.28    0.83
 -12 -10   2   -1.88    2.77
 -10  12   2    0.94    0.84
  12  10   2    2.09    0.93
 -12 -10   2    2.09    2.88
  12   8  -2    1.06    0.76
  -8  12  -2    0.41    0.77
   8 -12  -2    1.61    0.74
 -12  -8   2    4.73    2.34
  12   8   2    0.83    0.85
  -8  12   2   -0.01    0.78
  12   6  -2    7.90    1.13
   6 -12  -2    4.24    2.15
   6 -12  -2    9.13    1.08
  -6  12  -2    6.74    1.18
  -6  12   2    6.04    1.18
 -12  -6   2    8.52    1.13
  12   6   2    8.29    1.52
  -6  12   2    8.56    2.15
 -12  -6   2    5.94    2.24
 -12  -6   2    8.16    2.45
  12   4  -2   14.83    1.31
  -4  12  -2   14.97    1.28
   4 -12  -2   14.08    1.13
  -4  12  -2   17.52    3.16
  12   4   2   16.95    1.54
 -12  -4   2   12.41    2.50
   4 -12   2   14.06    3.19
  -4  12   2   14.18    1.30
 -12  -4   2   15.67    1.18
  -4  12   2   12.60    3.20
  12   2  -2    5.49    1.07
  -2  12  -2    3.98    0.77
  12   2  -2    1.00    1.80
  -2  12  -2    5.07    2.01
   2 -12  -2    4.30    1.92
   2 -12  -2    3.86    0.61
  12   2   2    4.08    0.77
  12   2   2    4.83    1.32
  -2  12   2    6.99    2.04
   2 -12   2    1.78    2.14
  -2  12   2    4.72    0.73
 -12  -2   2    1.70    1.77
 -12  -2   2    4.42    0.97
   0  12  -2   10.07    1.18
  12   0  -2   11.81    2.65
   0  12  -2    5.61    1.85
  12   0  -2    9.15    1.15
 -12   0  -2   10.47    0.82
 -12   0  -2   13.09    2.18
   0 -12  -2    6.68    1.99
   0  12   2    8.83    1.00
 -12   0   2    7.40    2.20
   0 -12   2   14.31    2.86
   0  12   2    9.09    2.15
  12   0   2   10.24    1.25
  12   0   2    6.73    1.79
 -12   0   2    9.57    1.03
  12  -2  -2    0.57    1.64
 -12   2  -2    1.49    0.54
 -12   2  -2    2.86    1.63
   2  12  -2   -0.05    0.61
  12  -2  -2    0.49    0.64
   2  12  -2    0.87    1.70
 -12   2   2   -0.02    1.80
  -2 -12   2    1.38    1.99
   2  12   2    0.70    0.57
  12  -2   2    0.95    0.69
   2  12   2    2.30    1.69
  12  -2   2    1.15    1.59
 -12   2   2    0.18    0.60
  12  -4  -2   17.93    3.01
   4  12  -2   19.73    1.36
   4  12  -2   17.45    1.42
  -4 -12  -2   12.95    2.32
  12  -4  -2   20.03    1.43
 -12   4  -2   20.84    1.31
  -4 -12   2   16.06    3.46
   4  12   2   17.07    2.73
  12  -4   2   17.93    1.47
 -12   4   2   12.57    3.22
   4  12   2   20.49    1.22
  12  -4   2   14.53    3.03
 -12   4   2   19.29    1.42
  12  -6  -2   13.56    2.66
  12  -6  -2   21.29    1.51
   6  12  -2   16.65    1.31
 -12   6  -2   22.08    1.49
 -12   6  -2   18.29    3.83
   6  12  -2   21.01    1.48
 -12   6   2   21.01    1.50
   6  12   2   20.37    1.23
   8  12  -2    3.63    0.76
 -12   8  -2    6.52    1.29
 -12   8  -2    5.16    2.41
  12  -8  -2    6.13    1.22
   8  12  -2    5.78    1.19
  -8 -12   2    9.42    2.75
  12  -8   2    1.39    2.35
  -8 -12   2    2.20    2.41
  12  -8   2    3.00    0.84
 -12   8   2    6.02    1.33
 -12  10  -2    1.32    0.89
  10  12  -2    1.89    0.92
  10  12  -2    0.85    0.79
  12 -10  -2    1.34    0.85
 -10 -12   2    4.86    2.62
  10  12   2    2.14    0.92
 -12  10   2    0.47    0.89
 -12  12  -2    1.70    1.03
  12 -12  -2    2.37    1.02
  12  12  -2    1.28    0.88
  12  12   2    1.47    1.11
 -12  12   2    0.38    0.90
 -11  13  -2    1.17    0.95
  13  11  -2    0.26    0.85
 -11  13   2    0.38    0.86
  13  11   2    2.35    1.06
   9 -13  -2    1.63    1.11
  13   9  -2    0.14    0.79
  -9  13  -2   -0.33    0.85
 -13  -9   2    5.91    2.97
 -13  -9   2    3.80    2.99
 -13  -9   2    2.16    0.88
  13   9   2    0.86    0.98
  13   7  -2    0.49    0.77
  -7  13  -2    0.14    0.82
   7 -13  -2    0.36    0.72
  13   7   2    0.62    0.88
 -13  -7   2    0.70    0.79
 -13  -7   2    4.88    2.37
  -7  13   2   -0.45    0.78
 -13  -7   2    2.13    2.37
   5 -13  -2    0.34    0.61
  13   5  -2   -0.24    0.73
  -5  13   2   -0.50    0.76
 -13  -5   2   -0.04    0.67
  -5  13   2    4.07    3.14
 -13  -5   2    1.59    2.16
  -3  13  -2    9.90    1.29
  13   3  -2   17.84    3.17
  13   3  -2   10.03    1.22
   3 -13  -2   10.55    1.10
 -13  -3   2   13.32    3.16
  13   3   2   12.89    1.55
 -13  -3   2   10.62    1.19
   3 -13   2    7.53    3.25
  -3  13   2   10.47    1.27
  -3  13   2    9.31    2.42
  -1  13  -2    7.30    1.23
  13   1  -2    8.54    1.18
   1 -13  -2    7.05    2.17
   1 -13  -2    6.69    0.72
  13   1  -2   11.24    2.95
  -1  13  -2    4.77    2.41
  13   1   2    4.36    1.83
   1 -13   2    5.15    1.98
  13   1   2    8.61    1.35
  -1  13   2    7.10    2.18
 -13  -1   2    5.49    2.09
  -1  13   2    7.93    1.12
 -13  -1   2    7.32    1.08
   1  13  -2   25.49    1.60
 -13   1  -2   28.34    1.40
  13  -1  -2   20.75    3.38
   1  13  -2   18.17    3.35
  13  -1  -2   26.12    1.61
 -13   1  -2   28.12    3.08
   1  13   2   17.95    3.26
  -1 -13   2   23.90    3.36
 -13   1   2   19.36    3.54
 -13   1   2   25.59    1.57
  13  -1   2   24.82    3.12
  13  -1   2   24.64    1.69
   1  13   2   26.48    1.60
  13  -3  -2   24.02    3.25
 -13   3  -2   26.76    1.51
  13  -3  -2   26.32    1.65
 -13   3  -2   29.38    3.51
   3  13  -2   23.70    1.62
  -3 -13   2   19.53    3.77
   3  13   2   28.38    3.24
 -13   3   2   24.87    1.62
  13  -3   2   23.09    1.75
   3  13   2   25.26    1.49
 -13   3   2   18.44    3.69
  13  -3   2   20.73    3.27
   5  13  -2   29.43    1.78
 -13   5  -2   31.75    1.79
  13  -5  -2   30.41    1.84
  13  -5   2   27.19    3.59
  13  -5   2   22.45    1.86
   5  13   2   28.63    1.63
  -5 -13   2   28.05    3.81
 -13   5   2   29.06    1.80
  -5 -13   2   38.39    3.95
   5  13   2   25.66    3.48
  13  -7  -2   -0.07    0.74
 -13   7  -2    0.86    0.90
   7  13  -2   -0.04    0.78
 -13   7  -2   -2.59    2.79
   7  13  -2   -1.50    0.68
 -13   7   2    0.49    0.80
  -7 -13   2    4.97    2.21
  -7 -13   2   -4.28    2.57
  13  -7   2   -2.16    2.20
  13  -9  -2    0.62    0.88
   9  13  -2   -1.34    0.79
 -13   9  -2   -0.75    0.96
   9  13  -2   -0.78    0.90
 -13   9   2   -0.23    0.92
   9  13   2    0.23    0.95
  13 -11  -2    8.73    1.74
 -13  11  -2   10.51    1.70
  11  13  -2    7.97    1.08
  11  13  -2    8.94    1.57
 -13  11   2    7.74    1.48
  11  13   2   11.79    1.78
 -13  13  -2   -0.20    1.19
  13  13  -2   -1.52    0.96
 -13  13   2   -0.87    0.93
  13  13   2   -0.64    1.10
 -12  14  -2    0.62    1.12
  14  12  -2   -1.09    0.97
  14  12   2   -0.28    1.08
 -12  14   2   -0.47    0.93
  14  10  -2    9.06    1.48
 -10  14  -2    7.27    1.47
  14  10   2   10.72    1.77
 -10  14   2    7.28    1.40
  14   8  -2    3.05    0.84
  -8  14  -2    1.87    0.89
 -14  -8   2    7.10    1.52
 -14  -8   2    6.83    3.21
  14   8   2    4.03    1.02
 -14  -8   2   10.42    3.05
  -8  14   2    1.61    0.87
  14   6  -2    0.41    0.73
  -6  14  -2    0.20    0.80
 -14  -6   2    1.04    2.41
  -6  14   2   -0.08    0.81
 -14  -6   2    3.17    2.69
  14   6   2    1.48    0.95
 -14  -6   2    0.87    0.85
  14   4  -2    9.05    2.77
  14   4  -2   16.30    1.39
   4 -14  -2   14.24    1.31
  -4  14  -2   15.29    1.45
  14   4   2   18.86    1.74
 -14  -4   2   16.13    3.63
 -14  -4   2   15.88    1.42
  -4  14   2   12.25    1.47
  -2  14  -2    0.25    0.90
   2 -14  -2   -0.20    0.63
  14   2  -2   -0.10    2.23
   2 -14  -2   -3.00    1.97
  14   2  -2    1.08    0.68
  -2  14   2    3.36    2.25
 -14  -2   2    0.43    0.72
 -14  -2   2   -0.65    2.15
  -2  14   2    0.90    0.76
   0  14  -2    0.31    0.74
 -14   0  -2    4.88    1.75
   0 -14  -2    0.90    2.04
  14   0  -2   -0.56    2.05
   0  14   2    0.74    0.74
 -14   0   2   -1.40    2.05
  14   0   2    1.58    0.89
  14   0   2   -2.45    2.00
 -14   0   2    0.94    0.71
  -2 -14  -2   -1.22    2.04
   2  14  -2    1.09    0.79
  14  -2  -2   -3.10    2.09
  14  -2   2    0.26    0.85
   2  14   2   -0.26    2.20
 -14   2   2    0.34    0.77
  14  -2   2    1.41    1.92
   2  14   2    1.59    0.71
   4  14  -2    1.92    0.81
 -14   4  -2    6.09    1.24
   4  14   2    3.64    2.02
  14  -4   2    0.60    0.85
  14  -4   2    0.63    2.13
   4  14   2    2.95    0.73
 -14   4   2    2.36    1.33
 -14   6  -2    3.61    2.88
 -14   6  -2    2.73    1.00
   6  14  -2    1.28    0.91
 -14   6   2    0.49    0.85
  14  -6   2   -0.77    2.43
  14  -6   2   -2.00    0.88
 -14   8  -2    7.81    1.58
   8  14  -2    7.79    1.30
  14  -8  -2    3.86    0.96
 -14   8   2    5.24    1.04
   8  14   2    7.55    1.51
  14 -10  -2    3.20    1.04
  10  14  -2    1.03    1.25
 -14  10  -2    3.77    1.18
  10  14  -2    4.11    1.13
 -14  10   2    2.67    1.01
  10  14   2    3.40    1.03
  12  14  -2   -0.27    1.00
 -14  12  -2    4.30    1.30
  12  14   2    1.59    1.03
 -14  12   2    2.20    1.01
 -14  14  -2   -0.56    1.39
 -14  14   2    0.78    1.07
  14  14   2   -1.59    1.12
  15  13  -2   -1.38    1.05
 -13  15  -2    1.40    1.27
 -13  15   2   -0.06    1.01
  15  13   2   -2.06    1.19
  15  11  -2    0.11    0.95
 -11  15  -2    1.98    1.08
  15  11   2    1.91    1.18
 -11  15   2    1.16    0.99
  15   9  -2   -0.34    0.84
  -9  15  -2   -0.32    0.92
  15   9   2    0.24    1.07
  -9  15   2   -0.81    0.86
  -7  15  -2    0.05    0.83
  15   7  -2   -0.13    0.83
  -7  15   2   -1.19    0.87
  15   7   2    0.51    1.09
 -15  -7   2    1.17    1.04
  15   5  -2    0.74    0.80
  -5  15  -2    0.25    0.87
 -15  -5   2    0.76    0.87
  -5  15   2    0.42    0.88
  15   5   2    2.49    1.08
 -15  -5   2    3.19    2.55
  15   3  -2    1.00    0.81
  15   3  -2    1.79    2.38
  -3  15  -2   -0.17    0.84
  -3  15   2    0.03    0.87
 -15  -3   2    0.75    2.50
 -15  -3   2    0.03    0.82
  15   3   2    1.33    0.94
  15   1  -2   17.47    1.51
  15   1  -2   24.88    3.77
   1 -15  -2   12.10    2.81
  -1  15  -2   14.24    1.58
  15   1   2   19.06    1.73
  -1  15   2   16.61    1.50
 -15  -1   2   15.09    1.51
  15  -1  -2    0.30    0.74
   1  15  -2    0.32    0.81
  -1 -15  -2    3.26    2.41
 -15   1   2   -0.39    0.80
  15  -1   2    1.10    0.98
   1  15   2    1.08    0.79
   1  15   2    2.86    2.36
   3  15  -2   17.89    1.57
 -15   3  -2   23.34    1.61
  15  -3  -2   18.48    1.57
   3  15   2   19.73    1.54
  15  -3   2   17.61    1.77
 -15   3   2   18.72    1.71
  15  -5  -2   28.11    1.90
 -15   5  -2   29.46    1.95
 -15   5  -2   35.45    5.08
   5  15  -2   24.56    1.83
  15  -5   2   20.92    1.96
 -15   5   2   26.59    1.91
   7  15  -2   13.36    1.57
  15  -7  -2   12.46    1.65
 -15   7  -2   13.76    1.68
  15  -7   2    9.44    1.28
   7  15   2   16.72    1.70
 -15   7   2   12.60    1.66
 -15   9  -2   19.74    2.00
  15  -9  -2   16.53    1.74
   9  15  -2   15.40    1.78
   9  15   2   16.01    1.82
 -15   9   2   14.65    1.76
  11  15  -2   -0.31    1.13
  15 -11  -2   -1.15    1.11
 -15  11  -2    1.16    1.41
 -15  11   2   -0.01    1.02
  11  15   2   -0.30    1.04
 -15  13  -2    2.86    1.47
  13  15  -2   -1.93    1.08
 -15  13   2    0.32    1.09
  13  15   2   -0.72    1.12
  15  15  -2    1.28    1.17
  15  15   2   -1.57    1.32
 -15  15   2    4.37    1.16
  16  14  -2   -1.70    1.13
 -14  16  -2    1.79    1.43
 -14  16   2    0.46    1.12
  16  12  -2   -1.51    1.05
 -12  16  -2    0.67    1.21
  16  12   2   -0.38    1.14
 -12  16   2   -0.90    1.05
 -10  16  -2    5.58    1.13
  16  10  -2    4.83    1.06
  16  10   2    5.36    1.20
 -10  16   2    3.73    1.04
  -8  16  -2   -0.62    0.94
  16   8  -2   -0.06    0.89
  16   8   2    1.20    1.14
  -8  16   2   -1.07    0.97
 -16  -8   2   -0.42    1.20
  16   6  -2    1.00    0.75
  -6  16  -2    0.40    0.95
  16   6   2    4.44    1.16
  -6  16   2    1.06    0.94
  16   4  -2   14.05    1.48
  -4  16  -2   10.76    1.50
 -16  -4   2   11.13    1.83
  -4  16   2   10.78    1.56
  -2  16  -2    0.40    0.95
  16   2  -2    0.83    0.85
  16   2   2    2.10    1.10
  -2  16   2   -0.43    0.95
  16   0  -2    8.91    1.40
   0  16  -2    8.92    1.40
  16   0   2   12.07    1.76
   0  16   2    9.98    1.44
 -16   0   2    6.75    1.49
   2  16  -2    0.59    0.92
  16  -2  -2    1.26    0.89
  -2 -16  -2   -2.97    2.69
 -16   2   2   -0.10    0.96
   2  16   2    6.85    3.17
   2  16   2    1.60    0.90
  16  -2   2    0.62    0.97
   4  16  -2    2.15    0.97
  16  -4  -2    2.81    0.95
  16  -4   2    0.60    1.07
 -16   4   2    2.93    1.00
 -16   6  -2   12.84    1.81
   6  16  -2    9.85    1.66
  16  -6  -2    8.38    1.64
  16  -6   2    6.96    1.22
 -16   6   2    8.70    1.63
  16  -8  -2   24.39    1.99
   8  16  -2   25.45    1.98
 -16   8  -2   27.67    2.14
   8  16   2   26.19    2.00
 -16   8   2   25.77    2.03
  10  16  -2   15.26    2.10
  16 -10  -2   15.44    1.92
 -16  10  -2   21.95    2.17
  10  16   2   16.82    1.89
 -16  10   2   15.28    1.89
 -16  12  -2    8.13    1.67
  12  16   2    1.66    1.20
 -16  12   2    4.30    1.22
 -16  14  -2    4.47    1.67
 -16  14   2    1.87    1.17
 -16  16  -2    3.44    1.71
  16  16  -2   -4.08    1.80
 -16  16   2    0.72    1.17
 -15  17  -2    3.58    1.58
  17  15  -2   -2.55    1.37
 -15  17   2    2.03    1.13
 -13  17  -2    3.73    1.42
  17  13  -2    0.63    1.13
 -13  17   2    2.97    1.16
  17  13   2   -1.56    1.23
 -11  17  -2    0.07    1.11
  17  11  -2   -0.03    1.00
 -11  17   2    0.59    1.08
  17  11   2   -0.69    1.23
  -9  17  -2   -0.73    1.06
  17   9  -2   -0.59    0.98
  17   9   2    0.74    1.15
  -9  17   2    0.29    1.04
  -7  17  -2    3.35    1.09
  17   7  -2    2.73    0.89
 -17  -7   2    3.99    1.47
  -7  17   2    2.86    1.11
  17   7   2    4.41    1.19
  17   5  -2    0.78    0.86
  -5  17  -2    0.69    1.00
  17   5   2    2.71    1.22
  -5  17   2   -0.15    1.05
 -17  -5   2   -1.29    1.07
  17   3  -2    9.93    1.45
  -3  17  -2    9.35    1.59
  -3  17   2    9.46    1.73
 -17  -3   2    8.06    1.22
  17   3   2   13.13    1.84
  -1  17  -2    0.34    0.93
  17   1  -2    0.77    0.77
  -1  17   2    2.37    1.02
  17   1   2    1.49    1.10
 -17  -1   2   -1.23    0.97
   1  17  -2    0.83    0.98
  17  -1  -2    1.18    0.87
 -17   1   2   -0.93    1.03
   1  17   2    1.19    1.01
  17  -1   2   -0.10    1.05
   3  17  -2   11.26    1.61
  17  -3  -2   12.00    1.50
 -17   3   2    7.60    1.67
  17  -3   2    8.39    1.70
 -17   5  -2   12.91    2.01
   7  17  -2   -0.42    1.13
  17  -7  -2   -0.46    1.10
 -17   7   2   -0.83    1.11
   7  17   2    0.76    0.99
   9  17  -2    3.28    1.32
  17  -9  -2    0.98    1.17
 -17   9  -2    5.78    1.59
   9  17   2    1.36    1.10
 -17   9   2    2.37    1.23
 -17  11  -2    4.66    1.72
 -17  11   2    0.72    1.21
 -17  13  -2    4.88    1.78
 -17  13   2    1.39    1.25
 -17  15  -2   10.41    2.02
 -14  18  -2    1.39    1.45
  18  14  -2   -1.65    1.18
 -14  18   2    1.20    1.24
 -12  18  -2    5.39    1.69
  18  12  -2    1.27    1.07
  18  12   2   -0.56    1.30
 -12  18   2    5.87    1.95
  18  10  -2    2.71    1.00
 -10  18  -2    2.45    1.26
  18  10   2    1.94    1.22
 -10  18   2    2.81    1.18
  -8  18  -2    4.11    1.17
  18   8  -2    2.85    0.94
  -8  18   2    4.41    1.22
  18   8   2    3.69    1.33
  -6  18  -2    2.77    1.11
  18   6  -2    3.15    0.97
  18   6   2    3.90    1.20
  -6  18   2    3.90    1.18
  -4  18  -2    9.88    1.71
  18   4  -2   10.85    1.52
  18   4   2   13.33    1.96
  -4  18   2   11.02    1.77
  18   2  -2    0.54    0.87
  -2  18  -2    0.01    1.03
  -2  18   2    0.92    1.13
  18   2   2    0.64    1.06
   0  18  -2    0.21    1.12
  18   0  -2    0.64    0.95
  18   0   2    0.58    1.07
   0  18   2    2.10    1.15
   2  18  -2   -1.28    1.11
  18  -2  -2   -0.34    0.91
  18  -2   2   -2.16    1.07
  18  -4  -2    0.00    1.11
   4  18  -2    0.42    1.20
 -18   4   2   -1.41    1.06
  18  -4   2   -1.60    1.15
   6  18  -2   -1.45    1.24
  18  -6  -2   -0.30    1.14
 -18   6   2   -0.52    1.14
  18  -8  -2    0.61    1.26
   8  18  -2    0.95    1.31
   8  18   2   -1.10    1.28
 -18   8   2   -0.08    1.26
  18 -10  -2    1.18    1.32
 -18  10   2    3.46    1.35
 -18  12  -2    4.54    1.86
 -18  12   2    2.17    1.35
 -18  14  -2   10.57    2.06
 -18  14   2    8.34    1.63
  19  13  -2   -1.74    1.10
 -13  19  -2    0.61    1.36
 -13  19   2    2.73    1.18
 -11  19  -2    8.59    1.64
 -11  19   2    8.86    1.83
  19   9  -2   -0.47    0.95
  -9  19  -2    0.42    1.18
  -9  19   2    1.81    1.25
  19   9   2   -1.47    1.09
  -7  19  -2    4.58    1.19
  19   7  -2    4.04    1.03
  19   7   2    3.76    1.18
  -7  19   2    9.17    1.76
  -5  19  -2    0.47    1.18
  19   5  -2   -0.19    0.91
  19   5   2    0.82    1.12
  -5  19   2    2.44    1.34
  19   3  -2    0.53    0.83
  -3  19  -2    1.07    1.22
  -3  19   2    1.56    1.23
  19   3   2    0.95    1.25
  -1  19  -2   19.09    1.94
  19   1  -2   16.83    1.73
  19   1   2   16.95    2.05
  -1  19   2   18.94    2.00
  19  -1  -2    0.20    1.02
   1  19  -2   -0.30    1.24
  19  -3  -2    0.35    1.06
   3  19  -2    0.64    1.31
  19  -3   2   -2.15    1.22
 -19   3   2   -1.21    1.14
   5  19  -2   -0.05    1.29
  19  -5  -2   -2.47    1.14
 -19   5   2   -1.07    1.26
   7  19  -2    0.84    1.33
  19  -7  -2   -0.66    1.23
 -19   7   2    1.15    1.37
 -19   9   2    1.93    1.38
 -19  11  -2   12.06    2.24
 -19  11   2    3.05    2.05
 -19  13  -2    7.10    2.02
 -19  13   2    4.76    1.47
  20  10  -2   -0.65    1.01
 -10  20  -2    2.44    1.24
  20  10   2   -2.59    1.11
 -10  20   2    3.00    1.35
  -8  20  -2    2.33    1.33
  20   8  -2    1.47    1.09
  -8  20   2    4.89    1.41
  20   8   2    2.58    1.86
  -6  20  -2    1.22    1.26
  20   6  -2    1.03    0.90
  20   6   2   -0.72    1.07
  -6  20   2    1.71    1.40
  20   4  -2    2.34    1.00
  -4  20  -2    2.37    1.33
  -4  20   2    4.69    1.43
  20   4   2    1.37    1.20
  20   2  -2    0.18    0.95
  -2  20  -2    0.72    1.29
  -2  20   2    2.99    1.43
  20   2   2   -1.01    1.14
  20   0  -2    0.40    0.94
   0  20  -2    1.02    1.34
   0  20   2    2.86    1.39
  20  -2  -2   -0.26    1.05
   2  20  -2   -0.91    1.34
  20  -4  -2    1.81    1.21
   4  20  -2    3.69    1.43
  20  -4   2   -2.24    1.29
 -20   4   2    3.17    1.36
   6  20  -2    3.23    1.40
  20  -6  -2    3.02    1.30
 -20   6   2    2.95    1.45
  20  -8  -2    0.45    1.33
 -20   8   2    3.14    1.52
 -20  10   2    5.86    1.56
  21   9  -2    1.70    1.00
  -9  21  -2    4.33    1.20
  21   7  -2   -0.23    1.01
  -7  21  -2    0.56    1.32
  -7  21   2    4.21    1.82
  21   5  -2   -1.95    1.58
  -5  21  -2    0.42    1.46
  21   5   2   -3.94    1.91
  -5  21   2    3.03    1.53
  -3  21  -2    1.41    1.34
  21   3  -2    0.20    1.03
  -3  21   2    3.08    1.57
  21   3   2   -2.67    1.21
  -1  21  -2    0.23    1.40
  21   1  -2   -0.06    0.96
  -1  21   2    2.17    1.53
  21  -1  -2   -0.70    1.06
   1  21  -2    0.87    1.46
   3  21  -2    3.04    1.53
  21  -3  -2   -0.01    1.18
 -21   3   2    2.96    1.36
   5  21  -2    0.32    1.51
  21  -5  -2   -1.32    1.27
 -21   5   2    3.19    1.47
  21  -7  -2   -0.48    1.36
   7  21  -2    1.71    1.95
 -21   7   2    7.86    2.16
 -21   9   2   15.12    2.12
  22   6  -2   -0.71    0.92
  -6  22  -2    1.99    1.33
  -6  22   2    4.46    1.68
  22   6   2   -2.34    0.99
  -4  22  -2    1.93    1.43
  22   4  -2   -0.03    1.01
  -4  22   2    5.84    2.26
  -2  22  -2    1.05    1.67
  22   2  -2   -0.49    0.97
  -2  22   2    3.20    1.67
   0  22  -2   -0.34    2.00
  22   0  -2   -0.32    1.14
  22   0   2   -2.49    1.66
   2  22  -2    2.37    1.69
  22  -2  -2   -1.30    1.21
 -22   2   2    2.36    1.47
  22  -4  -2   -0.31    1.30
   4  22  -2    3.29    2.24
 -22   4   2    5.25    1.59
  22  -6  -2    2.06    1.37
   6  22  -2    1.09    2.03
  -3  23  -2    0.63    1.48
  23   3  -2    0.10    0.97
  -1  23  -2    1.19    1.54
  23   1  -2    0.38    1.00
  23   1   2   -2.13    1.19
   1  23  -2    3.04    1.61
  23  -1  -2    0.19    1.20
  23  -1   2   -2.36    1.31
   3  23  -2    4.97    1.66
  23  -3  -2    1.38    1.26
  23  -3   2    1.13    1.44
   0  -1  -3   56.45    3.33
   1   0  -3   54.59    3.39
   0  -1  -3   56.65    2.53
  -1   0  -3   51.46    2.56
  -1   0  -3   55.07    2.50
   1   0  -3   49.93    2.56
   1   0  -3   55.95    2.54
   0   1  -3   55.99    2.52
   0  -1  -3   57.56    2.53
   0   1  -3   55.93    2.52
  -1   0   3   58.33    3.47
   1   0   3   56.92    3.25
   0   1   3   55.58    3.24
   0  -1   3   55.50    3.39
   0  -1   3   54.90    3.36
   1  -2  -3    0.97    0.46
  -1   2  -3    1.25    0.38
  -1   2  -3    1.45    0.42
  -2  -1  -3    0.91    0.47
   2   1  -3    1.50    0.51
   2   1  -3    1.36    0.45
  -2  -1  -3    1.08    0.39
   2   1  -3    2.96    1.31
   1  -2  -3    2.38    1.33
  -2  -1   3    0.72    1.34
  -1   2   3    2.15    1.24
  -1   2   3    1.12    0.43
   1  -2   3    0.57    1.22
   1  -2   3   -0.41    1.14
   2   1   3    0.56    1.05
   2   1   3    2.40    1.07
  -2   1  -3    4.19    0.63
  -1  -2  -3    4.21    1.19
   1   2  -3    4.27    0.72
   2  -1  -3    3.36    1.38
  -1  -2  -3    4.56    0.72
  -2   1  -3    4.17    0.57
   2  -1  -3    4.03    0.73
   1   2  -3    4.30    0.64
   2  -1   3    7.25    1.66
  -1  -2   3    5.28    1.43
  -1  -2   3    5.24    1.39
   1   2   3    2.63    1.10
  -2   1   3    2.98    1.31
   2  -1   3    7.36    1.73
  -3  -2  -3   22.14    1.24
  -2   3  -3   21.48    1.17
   2  -3  -3   21.61    1.22
   3   2  -3   21.49    1.20
  -2   3  -3   21.15    1.12
   2  -3  -3   21.99    2.48
   3   2  -3   20.20    2.38
  -2   3  -3   22.85    2.45
   3   2  -3   21.64    1.24
  -2   3   3   20.84    1.18
   3   2   3   24.77    1.85
   2  -3   3   17.98    2.26
  -2   3   3   23.04    2.45
   3   2   3   23.57    1.79
  -3  -2   3   20.63    2.52
   0  -3  -3   17.75    1.11
   0  -3  -3   18.14    2.23
   3   0  -3   18.17    1.17
  -3   0  -3   17.61    0.96
   3   0  -3   18.36    1.09
   0   3  -3   17.71    1.08
   3   0  -3   20.84    2.37
  -3   0  -3   18.02    1.09
   0   3  -3   18.16    1.02
   3   0   3   19.46    1.92
   0  -3   3   17.87    2.40
  -3   0   3   20.50    2.40
   0  -3   3   17.55    2.38
   0   3   3   20.36    1.01
   3   0   3   18.12    1.90
  -3   2  -3   26.64    1.34
   2   3  -3   25.80    1.35
   2   3  -3   26.07    1.42
  -3   2  -3   26.95    1.33
  -2  -3  -3   28.10    2.07
   3  -2  -3   27.89    2.67
  -2  -3  -3   27.54    1.41
   3  -2  -3   28.26    1.43
  -3   2  -3   28.00    2.45
  -3   2   3   27.97    2.73
  -3   2   3   27.27    1.39
   2   3   3   21.89    2.05
   3  -2   3   24.64    2.29
  -2  -3   3   27.14    2.65
  -2  -3   3   29.46    2.67
   4   3  -3   56.89    2.56
  -3   4  -3   56.55    3.64
   3  -4  -3   54.14    3.63
  -3   4  -3   55.98    2.58
  -3   4  -3   55.51    2.50
   3  -4  -3   55.06    2.58
   4   3  -3   56.52    2.61
  -4  -3  -3   58.94    2.59
  -4  -3   3   57.59    3.83
   4   3   3   52.33    2.45
   4   3   3   57.75    2.84
   3  -4   3   54.34    3.65
  -3   4   3   55.49    3.69
   4   3   3   56.67    2.83
  -3   4   3   55.13    2.56
   1  -4  -3    2.30    0.46
  -4  -1  -3    2.92    0.47
   4   1  -3    3.47    0.58
  -4  -1  -3    3.41    0.51
  -1   4  -3    5.01    1.64
   1  -4  -3    4.41    1.40
   4   1  -3    3.75    1.48
  -1   4  -3    3.36    0.71
  -1   4  -3    3.09    0.53
   4   1  -3    3.40    0.51
   4   1   3    3.12    0.99
  -4  -1   3    3.31    1.60
  -1   4   3    4.66    1.39
   1  -4   3    3.61    1.47
   4   1   3    4.30    1.01
  -4   1  -3   52.84    2.42
  -1  -4  -3   56.91    3.32
   4  -1  -3   54.57    2.52
   1   4  -3   53.88    2.44
  -1  -4  -3   53.28    2.49
  -4   1  -3   51.33    2.45
   1   4  -3   52.53    2.50
   4  -1  -3   50.91    3.60
  -1  -4   3   53.90    3.59
  -1  -4   3   55.51    3.60
   1   4   3   59.82    3.23
  -4   1   3   51.88    2.48
   1   4   3   55.59    2.42
  -4   1   3   51.12    3.63
   4  -1   3   57.36    3.19
   4  -3  -3   30.79    1.59
   4  -3  -3   28.78    2.77
  -4   3  -3   31.35    1.57
  -3  -4  -3   31.71    2.10
   3   4  -3   31.34    1.62
   3   4  -3   31.39    1.54
  -3  -4  -3   33.43    1.63
  -4   3  -3   31.39    2.68
  -3  -4   3   31.40    2.82
   3   4   3   32.10    1.44
  -3  -4   3   32.86    2.91
  -4   3   3   30.52    2.86
   4  -3   3   24.33    2.57
   3   4   3   37.22    2.14
  -4   3   3   30.61    1.57
  -4   5  -3   26.77    1.41
   5   4  -3   25.29    1.35
   4  -5  -3   25.65    1.39
   4  -5  -3   23.31    3.12
  -4   5  -3   25.44    2.68
   5   4  -3   25.67    1.43
  -4   5   3   23.19    3.54
   4  -5   3   23.19    2.77
  -4   5   3   25.89    1.40
  -5  -4   3   27.02    2.83
   2  -5  -3    0.08    0.51
   5   2  -3    0.31    0.54
  -2   5  -3    0.09    0.29
   5   2  -3    0.11    0.45
   2  -5  -3   -0.14    1.30
  -2   5  -3    0.22    0.49
  -2   5  -3   -0.19    1.40
   5   2  -3    0.49    1.41
  -5  -2   3    0.13    1.53
  -2   5   3    0.62    1.36
   5   2   3    0.20    0.72
   2  -5   3   -1.41    1.38
  -2   5   3    0.51    0.44
   5   2   3    0.26    0.70
   0  -5  -3    2.98    1.33
   5   0  -3    3.22    0.52
  -5   0  -3    3.18    0.46
   0   5  -3    3.39    0.53
   5   0  -3    2.99    1.47
   0   5  -3    3.62    0.55
   0  -5  -3    3.71    0.56
   0   5   3    7.94    2.08
   0  -5   3    2.67    1.40
   5   0   3    5.65    1.48
   0   5   3    4.95    0.62
  -5   0   3    4.02    1.62
  -5   0   3    2.65    0.55
   2   5  -3   38.11    1.78
  -5   2  -3   39.35    2.80
  -5   2  -3   38.44    1.80
  -2  -5  -3   41.45    2.64
  -2  -5  -3   39.73    1.88
   5  -2  -3   38.06    3.22
   5  -2  -3   38.06    1.87
   2   5  -3   37.17    1.87
   2   5   3   40.37    2.56
   5  -2   3   33.35    2.73
   2   5   3   38.08    1.76
  -2  -5   3   33.09    3.75
  -2  -5   3   35.99    3.32
  -5   2   3   36.88    1.85
  -5   2   3   38.47    3.19
   5  -4  -3    2.01    0.53
   5  -4  -3    1.17    1.37
   4   5  -3    2.83    0.61
   4   5  -3    2.13    0.44
  -4  -5  -3    2.11    0.77
  -5   4  -3    2.27    0.51
  -4  -5  -3    2.79    0.55
  -5   4  -3    2.34    1.41
  -4  -5   3    2.30    1.47
  -4  -5   3    0.60    1.40
  -5   4   3    2.58    0.54
  -5   4   3    3.58    1.55
   5  -4   3    1.02    1.40
   4   5   3    3.23    0.80
   5  -6  -3    7.46    1.78
   5  -6  -3    6.05    0.83
   6   5  -3    6.21    0.94
   6   5  -3    6.14    0.82
  -5   6  -3    5.37    0.85
  -5   6  -3    6.13    1.67
  -5   6   3    8.17    2.02
  -6  -5   3    4.97    1.61
   5  -6   3    5.56    1.73
  -6  -5   3    6.28    1.80
   3  -6  -3    9.07    2.27
   6   3  -3   11.29    1.02
  -3   6  -3   10.81    1.01
  -3   6  -3    9.57    2.35
   6   3  -3   10.42    0.93
   3  -6  -3   10.01    0.93
   6   3  -3   10.41    2.30
  -3   6   3   11.85    0.95
  -3   6   3   10.03    1.95
  -6  -3   3    9.39    2.45
   3  -6   3   10.62    2.54
   6   1  -3   26.61    1.42
   1  -6  -3   26.96    1.44
  -1   6  -3   26.63    1.46
  -1   6  -3   23.45    2.67
   1  -6  -3   27.03    2.65
   6   1  -3   26.08    2.76
  -6  -1  -3   25.27    1.22
  -1   6  -3   25.87    1.25
   1  -6   3   24.94    2.81
  -1   6   3   26.91    1.40
   6   1   3   27.26    1.86
   6   1   3   30.02    1.86
  -6  -1   3   25.50    2.85
  -1   6   3   26.18    2.72
  -6   1  -3   36.04    1.69
  -1  -6  -3   38.12    2.78
   1   6  -3   36.43    1.82
  -1  -6  -3   36.40    1.79
   6  -1  -3   33.52    3.01
   1   6  -3   36.25    1.67
  -6   1  -3   35.81    2.57
   6  -1  -3   37.66    1.80
  -6   1   3   36.62    1.78
   6  -1   3   30.12    2.51
   1   6   3   35.67    1.71
  -1  -6   3   36.00    3.03
   1   6   3   36.77    2.75
  -6   1   3   35.63    3.19
   6  -3  -3   27.41    2.82
   3   6  -3   29.07    1.54
  -6   3  -3   28.98    1.47
  -6   3  -3   28.08    2.67
   6  -3  -3   30.60    1.56
  -3  -6  -3   31.27    1.58
  -3  -6  -3   32.10    2.25
  -3  -6   3   28.23    2.99
   3   6   3   29.10    1.39
  -6   3   3   29.25    1.53
   3   6   3   30.14    2.22
  -6   3   3   28.01    2.89
   6  -3   3   26.35    2.66
  -3  -6   3   27.84    2.93
   5   6  -3    3.97    0.87
   6  -5  -3    4.44    1.78
  -6   5  -3    4.59    0.60
   6  -5  -3    4.19    0.86
   5   6  -3    4.91    0.73
  -5  -6   3    3.15    1.53
  -6   5   3    5.87    0.89
  -6   5   3    4.47    1.87
  -5  -6   3    2.55    1.44
   7   6  -3    3.77    0.65
   7   6  -3    4.25    0.86
  -6   7  -3    4.12    1.82
   6  -7  -3    4.35    0.90
  -6   7  -3    4.33    0.93
   6  -7  -3    4.62    1.66
  -6   7   3    6.27    1.03
  -6   7   3    1.46    1.64
  -7  -6   3    3.50    1.81
   6  -7   3    4.55    1.78
  -7  -6   3    4.42    1.81
   7   4  -3    2.43    1.56
  -4   7  -3    2.52    0.64
   4  -7  -3    3.53    1.70
  -4   7  -3    2.04    1.56
   4  -7  -3    1.52    0.53
   7   4  -3    2.13    0.61
   7   4  -3    2.05    0.50
   4  -7   3    2.05    1.76
  -4   7   3    3.49    1.82
  -7  -4   3    2.31    1.76
   2  -7  -3   25.72    2.80
   2  -7  -3   24.12    1.36
  -2   7  -3   25.44    1.44
  -2   7  -3   23.03    3.02
   7   2  -3   25.78    1.41
   7   2  -3   25.40    2.79
   2  -7   3   23.69    2.93
  -2   7   3   23.58    2.87
  -2   7   3   27.10    1.40
  -7  -2   3   24.52    2.81
  -7   0  -3  407.51   18.14
   0  -7  -3  440.16   18.96
   7   0  -3  403.49   18.19
   0  -7  -3  414.83   18.19
   0   7  -3  419.38   18.20
  -7   0  -3  450.93   18.60
   7   0  -3  423.74   19.07
   0   7  -3  407.55   18.14
   7   0   3  426.10   18.58
  -7   0   3  427.25   19.12
  -7   0   3  410.45   18.20
   0   7   3  419.77   18.19
   0   7   3  427.07   18.90
   0  -7   3  426.20   19.08
  -7   2  -3   52.79    2.46
   7  -2  -3   51.88    3.78
   2   7  -3   54.45    2.53
  -2  -7  -3   55.26    2.51
  -2  -7  -3   56.01    3.37
   2   7  -3   52.28    2.40
   7  -2  -3   54.34    2.51
  -7   2  -3   52.90    3.40
  -2  -7   3   52.14    3.72
  -2  -7   3   51.20    3.81
   7  -2   3   49.60    3.41
  -7   2   3   53.25    3.74
   2   7   3   53.93    2.43
   2   7   3   54.44    3.36
  -7   2   3   53.17    2.51
   7  -4  -3   41.56    3.34
   7  -4  -3   42.62    2.03
   4   7  -3   40.27    1.93
  -4  -7  -3   44.98    2.58
  -7   4  -3   39.05    3.19
  -7   4  -3   41.52    1.97
   4   7  -3   41.38    2.02
   7  -4   3   38.59    3.26
  -4  -7   3   40.49    3.36
   4   7   3   37.88    1.83
   4   7   3   40.99    2.48
  -7   4   3   41.71    2.03
  -7   4   3   40.08    3.41
  -4  -7   3   40.49    3.48
   6   7  -3   18.58    1.16
   7  -6  -3   16.91    2.88
  -7   6  -3   18.32    1.19
  -7   6  -3   18.83    2.70
   7  -6  -3   18.67    1.23
   6   7  -3   18.10    1.25
   7  -6   3   19.97    2.85
  -7   6   3   19.93    1.27
  -6  -7   3   20.20    2.77
   7  -6   3   16.28    1.04
  -6  -7   3   17.17    2.70
  -7   6   3   15.89    2.80
  -7   8  -3    2.58    1.83
   7  -8  -3    1.65    1.48
   8   7  -3    1.26    0.59
   8   7  -3    1.29    0.66
   7  -8  -3    1.23    0.57
  -7   8  -3    1.22    0.64
  -7   8   3    1.14    0.61
  -8  -7   3    2.59    1.67
  -7   8   3   -0.54    1.81
  -8  -7   3    1.68    1.57
   7  -8   3    3.06    1.87
   5  -8  -3   24.80    3.00
  -5   8  -3   25.62    1.51
   5  -8  -3   26.42    1.48
   8   5  -3   24.98    1.54
   8   5  -3   27.37    1.50
  -5   8  -3   26.16    3.12
  -8  -5   3   19.83    3.09
   5  -8   3   27.89    3.06
  -5   8   3   27.34    1.51
  -5   8   3   23.28    3.25
   3  -8  -3   16.67    2.70
  -3   8  -3   11.94    2.64
   8   3  -3   15.86    1.13
  -3   8  -3   14.89    1.22
   3  -8  -3   14.14    1.06
   8   3  -3   12.75    2.47
  -3   8   3   17.15    1.15
   3  -8   3   15.58    2.98
  -3   8   3   15.54    2.84
  -8  -3   3   16.00    2.70
  -1   8  -3  152.65    7.74
  -1   8  -3  164.06    6.73
  -8  -1  -3  147.78    6.59
   8   1  -3  154.82    6.70
   1  -8  -3  160.14    7.77
   8   1  -3  146.22    7.68
  -1   8  -3  132.85    6.58
   1  -8  -3  155.47    6.68
  -1   8   3  159.70    6.70
   8   1   3  154.88    6.99
   1  -8   3  150.21    7.78
  -8  -1   3  153.41    6.70
  -1   8   3  155.17    7.70
  -8  -1   3  150.73    7.81
  -1  -8  -3   11.72    2.24
   1   8  -3   11.86    2.52
   1   8  -3   11.35    1.03
  -8   1  -3   11.68    1.95
   8  -1  -3   12.73    1.04
   8  -1  -3   12.06    2.40
   1   8  -3   11.27    0.70
  -1  -8  -3   11.42    1.02
  -8   1  -3   11.25    0.77
  -8   1   3   11.40    2.64
   1   8   3   12.24    0.89
   1   8   3   12.94    2.30
   8  -1   3   11.65    1.97
  -1  -8   3   10.37    2.57
  -8   1   3   11.94    0.98
  -3  -8  -3   17.61    1.17
  -8   3  -3   15.73    2.38
  -8   3  -3   16.60    1.03
   8  -3  -3   17.91    1.19
  -3  -8  -3   18.14    2.11
   3   8  -3   15.29    1.06
   3   8  -3   16.60    1.20
   8  -3  -3   15.05    2.52
  -3  -8   3   16.67    2.66
   8  -3   3   17.61    2.45
  -8   3   3   17.04    2.67
   3   8   3   17.87    2.04
   3   8   3   18.67    0.99
  -8   3   3   17.52    1.18
  -3  -8   3   16.23    2.59
  -8   5  -3   71.69    4.63
   8  -5  -3   72.12    4.81
   8  -5  -3   79.17    3.48
  -8   5  -3   78.68    3.45
   5   8  -3   79.19    3.49
  -5  -8  -3   81.88    3.84
   5   8  -3   78.28    3.42
   8  -5   3   74.54    3.42
  -8   5   3   79.36    3.49
   5   8   3   70.93    3.32
   5   8   3   72.96    3.76
  -5  -8   3   77.61    4.80
  -5  -8   3   74.93    4.75
  -8   5   3   70.54    4.79
   8  -5   3   75.22    4.78
   8  -7  -3    9.80    2.21
  -8   7  -3   11.37    2.58
   7   8  -3    8.37    1.07
  -8   7  -3    9.33    1.06
   7   8  -3    8.60    0.98
   8  -7  -3    7.81    1.00
  -8   7   3   10.42    1.19
   8  -7   3    8.48    2.08
  -8   7   3    5.23    2.13
  -7  -8   3   11.41    2.73
  -7  -8   3    7.07    2.02
   8  -9  -3    6.03    1.04
  -8   9  -3    5.15    1.10
   8  -9  -3    2.46    1.95
  -8   9  -3   13.44    3.00
   9   8  -3    6.48    1.15
   9   8  -3    6.31    0.78
  -8   9   3    3.32    1.97
  -9  -8   3    6.10    2.19
   8  -9   3   12.24    3.00
  -9  -8   3    7.34    2.00
  -8   9   3    7.10    1.23
   6  -9  -3    5.78    0.98
  -6   9  -3    6.27    1.07
  -6   9  -3    3.80    1.94
   6  -9  -3    1.82    1.76
   9   6  -3    5.40    1.06
   9   6  -3    6.61    1.02
   6  -9   3    6.13    1.79
  -9  -6   3    4.17    1.77
  -6   9   3    7.04    1.08
  -6   9   3    3.37    1.95
  -9  -6   3    1.65    1.98
   9   4  -3   89.60    5.41
   4  -9  -3   88.29    5.56
  -4   9  -3   87.20    5.48
   4  -9  -3   97.33    4.18
   9   4  -3   98.10    4.20
  -4   9  -3  100.72    4.23
  -4   9   3   99.45    4.23
  -9  -4   3   90.43    5.56
   4  -9   3   87.85    5.49
  -4   9   3   83.15    5.48
   9   2  -3   29.37    1.59
   2  -9  -3   28.35    1.55
   2  -9  -3   24.37    3.12
   9   2  -3   25.87    2.88
  -2   9  -3   28.63    1.61
  -2   9  -3   27.79    3.13
   2  -9   3   32.45    3.19
  -9  -2   3   28.34    1.56
  -2   9   3   29.28    1.60
  -2   9   3   26.87    3.24
  -9  -2   3   29.05    3.21
   0   9  -3   40.08    3.51
  -9   0  -3   46.77    2.88
   9   0  -3   44.20    3.67
   0   9  -3   50.32    2.34
   0  -9  -3   48.21    3.64
   9   0  -3   49.28    2.33
  -9   0  -3   46.74    2.16
   0  -9  -3   48.74    2.29
  -9   0   3   47.03    3.86
   9   0   3   47.37    2.97
  -9   0   3   49.86    2.31
   0   9   3   48.40    3.64
   0   9   3   50.56    2.28
   0  -9   3   47.11    3.81
  -2  -9  -3    3.33    1.57
  -2  -9  -3    4.49    0.93
   2   9  -3    4.71    0.90
  -9   2  -3    4.18    1.40
  -9   2  -3    5.05    0.64
   2   9  -3    3.72    0.51
   9  -2  -3    4.67    0.65
   9  -2  -3    3.26    1.63
   9  -2   3    3.00    1.50
   2   9   3    6.33    0.74
  -9   2   3    2.60    1.63
  -9   2   3    4.78    0.83
   2   9   3    3.88    1.46
  -2  -9   3    5.02    1.82
   4   9  -3    0.85    0.40
   9  -4  -3    1.38    0.57
  -9   4  -3    1.66    0.52
  -9   4  -3    1.49    1.43
   4   9  -3    0.79    0.62
   9  -4  -3   -0.21    1.63
  -4  -9  -3    1.43    1.17
  -9   4   3    1.72    0.63
  -4  -9   3    1.84    1.50
  -9   4   3    0.41    1.54
   4   9   3    1.14    1.12
  -4  -9   3   -0.69    1.61
   9  -4   3    2.26    1.89
   9  -4   3    1.20    0.52
   6   9  -3    6.71    0.88
   6   9  -3    5.84    0.99
   9  -6  -3    7.09    1.05
  -9   6  -3    7.12    1.00
   9  -6  -3    6.12    1.93
  -9   6  -3    2.57    1.77
  -6  -9   3    7.03    1.79
   9  -6   3    4.58    1.85
  -9   6   3    2.73    1.90
  -9   6   3    7.26    1.09
  -6  -9   3    5.56    2.24
   9  -6   3    5.76    0.65
   8   9  -3    4.97    0.82
  -9   8  -3    3.88    0.77
  -9   8  -3    2.22    1.88
   8   9  -3    4.20    0.70
   9  -8  -3    4.08    0.71
   9  -8  -3    3.58    2.04
  -8  -9   3    2.73    1.92
  -8  -9   3    4.21    1.92
  -9   8   3    1.21    1.96
  -9   8   3    5.56    1.10
   9  -8   3    2.19    1.90
  -9  10  -3    2.34    0.82
  10   9  -3    2.66    0.77
   9 -10  -3    2.44    0.71
  10   9  -3    2.12    0.83
  -9  10   3    1.52    0.80
 -10  -9   3    0.02    2.47
 -10  -9   3    4.39    2.28
  10   7  -3    2.18    0.65
  -7  10  -3    1.87    0.75
   7 -10  -3    2.01    0.65
   7 -10  -3    2.04    2.02
  -7  10  -3    3.20    2.11
  10   7  -3    2.07    0.77
  -7  10   3    5.59    2.11
 -10  -7   3    4.59    2.06
   7 -10   3    3.24    2.01
  -7  10   3    2.00    0.77
 -10  -7   3    1.91    1.84
  10   5  -3   17.58    1.30
   5 -10  -3   16.49    1.21
  -5  10  -3   15.91    1.33
   5 -10  -3   12.47    3.21
  -5  10  -3   18.55    2.96
  -5  10   3   13.45    3.19
   5 -10   3   18.66    3.07
  -5  10   3   15.86    1.34
 -10  -5   3   21.83    3.03
  10   3  -3   25.68    2.95
  10   3  -3   26.04    1.49
  -3  10  -3   25.16    1.55
   3 -10  -3   24.57    1.43
   3 -10  -3   18.26    3.13
  -3  10  -3   20.59    3.05
   3 -10   3   27.51    3.29
  -3  10   3   25.96    1.53
 -10  -3   3   24.24    1.48
  -3  10   3   24.66    3.25
 -10  -3   3   21.12    3.07
   1 -10  -3   26.70    1.50
  -1  10  -3   28.06    1.59
 -10  -1  -3   26.84    1.89
  10   1  -3   31.45    3.06
  10   1  -3   27.82    1.55
   1 -10  -3   24.35    2.98
  -1  10  -3   22.01    3.00
  -1  10   3   28.12    3.11
 -10  -1   3   26.37    3.09
  -1  10   3   27.45    1.55
 -10  -1   3   27.14    1.53
  10   1   3   26.89    2.10
   1 -10   3   26.50    3.19
   1  10  -3   18.75    1.28
 -10   1  -3   17.39    2.14
  10  -1  -3   19.01    1.28
  -1 -10  -3   19.12    2.65
   1  10  -3   11.78    2.78
  -1 -10  -3   19.46    1.23
  10  -1  -3   18.08    2.78
 -10   1  -3   17.34    1.00
  10  -1   3   18.44    1.28
   1  10   3   17.79    2.75
 -10   1   3   18.77    1.21
 -10   1   3   16.62    2.79
  10  -1   3   16.85    2.29
   1  10   3   20.07    1.20
  -1 -10   3   20.42    3.05
   3  10  -3   11.75    1.11
  10  -3  -3   12.16    1.13
  10  -3  -3   10.78    2.58
  -3 -10  -3    8.84    2.37
   3  10  -3   10.45    0.77
 -10   3  -3    9.65    2.31
 -10   3  -3   12.04    0.92
   3  10   3   11.61    2.24
 -10   3   3   11.21    1.08
 -10   3   3    9.38    2.27
  -3 -10   3    7.80    2.04
  10  -3   3   11.13    1.07
   3  10   3   12.17    0.85
  10  -3   3    9.34    1.95
   5  10  -3   -0.05    0.59
   5  10  -3   -0.07    0.44
  10  -5  -3   -0.41    0.58
 -10   5  -3    1.05    1.71
 -10   5  -3   -0.02    0.56
  10  -5  -3    1.26    1.70
  -5 -10  -3   -0.40    1.19
   5  10   3    1.56    1.15
 -10   5   3    0.29    0.63
  10  -5   3   -1.47    1.65
  -5 -10   3    0.98    1.62
  -5 -10   3    0.06    1.59
  10  -5   3   -0.33    0.56
 -10   7  -3    0.58    0.69
  10  -7  -3   -0.25    0.66
  10  -7  -3   -2.05    1.83
 -10   7  -3    1.65    1.87
   7  10  -3    0.08    0.69
   7  10  -3   -0.47    0.59
 -10   7   3    0.74    0.70
  -7 -10   3    4.48    1.86
  10  -7   3   -2.13    1.77
 -10   9  -3    7.87    1.35
  10  -9  -3    8.27    1.23
 -10   9  -3    7.76    2.21
   9  10  -3    8.39    1.30
   9  10  -3    8.94    1.24
  -9 -10   3    3.87    2.60
  -9 -10   3    7.39    2.40
 -10   9   3    8.59    1.33
  11  10  -3    0.51    1.07
  11  10  -3    0.87    1.64
  10 -11  -3    0.43    0.80
 -10  11  -3    0.44    0.91
 -10  11   3   -0.54    0.82
  11   8  -3    1.77    0.77
  11   8  -3    1.51    0.87
   8 -11  -3    1.58    0.76
  -8  11  -3    2.09    1.11
  -8  11   3    1.29    0.78
 -11  -8   3   -3.34    2.25
 -11  -8   3    2.38    2.22
   6 -11  -3    0.78    0.61
  -6  11  -3    0.45    0.77
  11   6  -3    0.67    0.62
   6 -11  -3   -2.27    2.09
  -6  11  -3   -2.84    1.96
   6 -11   3    2.85    1.87
 -11  -6   3    4.65    2.16
 -11  -6   3    2.60    1.97
  -6  11   3    0.83    0.76
  -6  11   3    4.31    2.07
  11   4  -3    0.56    0.61
   4 -11  -3   -1.31    1.79
   4 -11  -3    0.46    0.59
  -4  11  -3    1.16    1.72
  -4  11  -3    0.34    0.72
  11   4  -3    1.14    1.61
 -11  -4   3   -0.80    1.71
 -11  -4   3    0.28    0.65
  -4  11   3    1.58    1.96
   4 -11   3   -0.32    1.69
  -4  11   3    0.44    0.68
  -2  11  -3   17.01    1.30
   2 -11  -3   16.24    1.23
  11   2  -3   17.43    1.29
   2 -11  -3   16.20    2.94
  11   2  -3   19.96    2.95
  -2  11  -3   15.72    2.90
  -2  11   3   16.83    1.29
 -11  -2   3   16.97    1.22
 -11  -2   3   12.74    3.06
  -2  11   3   19.10    3.13
   2 -11   3   20.40    3.17
  11   2   3   16.15    1.47
   0 -11  -3    2.10    1.60
   0 -11  -3   -0.30    0.56
 -11   0  -3    1.59    1.10
  11   0  -3    0.02    0.56
   0  11  -3    0.11    0.61
   0  11  -3    1.55    1.70
  11   0  -3   -0.98    1.47
 -11   0   3    0.45    1.64
   0  11   3    0.38    1.60
  11   0   3   -1.52    1.33
  11   0   3   -0.15    0.68
   0 -11   3    3.92    1.96
   0  11   3    0.60    0.60
 -11   0   3    0.38    0.60
 -11   2  -3    9.76    0.85
  11  -2  -3   10.03    1.12
 -11   2  -3   11.12    2.20
   2  11  -3    8.74    1.11
  -2 -11  -3   12.34    2.79
   2  11  -3    9.41    2.24
  11  -2  -3    8.77    2.12
  -2 -11   3   11.29    2.43
 -11   2   3   10.79    1.13
  11  -2   3    7.78    1.90
 -11   2   3    8.80    2.16
  11  -2   3    9.38    1.16
   2  11   3   12.09    2.70
   2  11   3   10.82    0.89
   4  11  -3   18.16    1.33
  -4 -11  -3   14.37    2.58
   4  11  -3   15.59    1.02
 -11   4  -3   18.43    1.22
 -11   4  -3   16.69    2.81
  11  -4  -3   17.38    1.34
  11  -4  -3   16.74    2.85
  -4 -11   3   15.17    2.98
   4  11   3   15.56    2.56
 -11   4   3   18.54    1.30
  11  -4   3   12.22    2.34
   4  11   3   18.56    1.09
  11  -4   3   17.46    1.31
  -4 -11   3   11.94    2.91
 -11   4   3   14.76    3.14
  11  -6  -3    6.45    1.06
   6  11  -3    6.06    1.10
   6  11  -3    4.91    0.94
 -11   6  -3    7.42    1.14
 -11   6  -3    5.06    2.01
  -6 -11   3    8.26    2.14
   6  11   3    3.03    1.31
  11  -6   3    4.76    2.12
  11  -6   3    3.66    0.80
  -6 -11   3    3.65    1.96
 -11   6   3    8.09    1.22
  11  -8  -3    3.78    0.82
 -11   8  -3    5.04    2.50
   8  11  -3    4.18    0.78
 -11   8  -3    4.09    0.89
   8  11  -3    3.93    0.84
  11  -8   3   -1.07    2.15
  -8 -11   3    9.06    3.81
  -8 -11   3    6.29    3.15
 -11   8   3    6.47    1.27
  11 -10  -3    2.26    0.88
 -11  10  -3    2.59    0.98
  10  11  -3    2.65    0.95
  10  11  -3    1.81    0.84
 -11  10   3    2.03    0.95
 -11  12  -3    2.65    1.08
  12  11  -3    2.92    1.20
  12  11  -3    1.18    0.90
  11 -12  -3    2.29    1.11
 -11  12   3    2.30    0.92
  12  11   3    1.97    1.01
  -9  12  -3    0.11    0.90
  12   9  -3   -0.27    0.82
   9 -12  -3    1.23    0.87
  -9  12   3    0.02    0.85
  12   9   3    1.01    0.97
   7 -12  -3    0.27    0.71
  -7  12  -3   -0.34    0.83
  12   7   3   -0.24    0.86
 -12  -7   3    4.39    2.34
  -7  12   3   -0.61    0.79
 -12  -7   3   -0.56    2.09
  12   5  -3    4.01    0.77
   5 -12  -3    4.13    2.12
   5 -12  -3    3.85    0.73
  -5  12   3    3.79    0.83
 -12  -5   3    4.30    0.78
 -12  -5   3    5.33    2.31
   3 -12  -3   30.32    3.53
  12   3  -3   30.56    1.80
   3 -12  -3   33.28    1.77
  -3  12  -3   32.81    1.90
  12   3  -3   34.19    3.50
 -12  -3   3   23.01    3.66
  -3  12   3   24.76    3.68
   3 -12   3   36.11    5.63
 -12  -3   3   31.54    1.79
  12   3   3   32.36    1.96
  -3  12   3   32.23    1.82
  12   1  -3    0.53    0.63
  -1  12  -3    1.32    1.75
  -1  12  -3    0.46    0.70
  12   1  -3    1.23    1.72
   1 -12  -3    0.36    0.63
 -12  -1  -3    1.96    1.01
   1 -12  -3    1.50    1.72
 -12  -1   3    0.28    0.67
   1 -12   3    2.83    1.92
  -1  12   3    0.55    0.68
  12   1   3    0.36    0.74
  -1  12   3    3.19    1.88
  12   1   3    1.38    1.23
 -12  -1   3    0.37    1.73
 -12   1  -3    7.94    0.78
  12  -1  -3    8.46    2.12
  -1 -12  -3    6.91    1.97
   1  12  -3    6.05    1.13
   1  12  -3    4.97    2.08
  12  -1  -3    6.89    1.11
  -1 -12  -3    5.42    1.05
   1  12   3    7.53    0.94
 -12   1   3    6.22    1.05
  12  -1   3    2.35    1.76
  -1 -12   3   10.03    2.47
 -12   1   3    4.67    1.94
   1  12   3   13.87    2.86
  12  -1   3    6.06    1.17
 -12   3  -3   -0.13    1.66
   3  12  -3    0.42    0.69
 -12   3  -3    0.82    0.55
  12  -3  -3   -0.20    0.70
 -12   3   3    0.28    0.63
  12  -3   3   -1.59    1.74
  -3 -12   3    2.16    2.20
  12  -3   3    0.30    0.69
 -12   3   3    0.37    1.79
 -12   5  -3   34.77    1.84
 -12   5  -3   31.84    3.50
  12  -5  -3   32.67    1.83
   5  12  -3   33.41    1.86
 -12   5   3   32.26    2.03
  -5 -12   3   25.11    4.48
   5  12   3   31.09    3.05
  12  -5   3   26.68    1.86
  -5 -12   3   20.66    3.98
   7  12  -3   12.93    1.31
 -12   7  -3   20.24    3.49
 -12   7  -3   13.56    1.46
   7  12  -3   13.23    1.41
  12  -7  -3   13.06    1.33
 -12   7   3   15.56    1.44
 -12   9  -3   21.58    1.76
  12  -9  -3   20.81    2.17
   9  12  -3   19.14    1.71
   9  12  -3   20.33    1.67
 -12   9   3   23.65    1.77
  12 -11  -3   18.01    1.73
 -12  11  -3   17.52    1.85
  11  12  -3   16.32    1.75
  11  12  -3   16.00    1.67
 -12  11   3   13.81    1.58
  11  12   3   19.76    1.88
  12 -13  -3    4.30    1.24
 -12  13  -3    6.21    1.31
  13  12  -3    3.71    1.02
 -12  13   3    4.04    1.01
  13  12   3    5.61    1.12
  13  10  -3    0.76    0.90
  10 -13  -3    2.87    1.08
 -10  13  -3    1.81    1.04
  13  10   3    2.07    1.10
 -10  13   3    0.71    0.89
  -8  13  -3   -0.40    0.93
  13   8  -3   -0.12    0.83
   8 -13  -3   -0.95    0.82
  -8  13   3   -0.81    0.85
  13   8   3    0.59    1.07
 -13  -8   3    0.17    0.98
   6 -13  -3   -0.31    0.77
  13   6  -3   -0.43    0.72
  -6  13  -3    0.35    0.86
  -6  13   3   -0.70    0.81
  13   6   3    0.54    0.97
 -13  -6   3    0.21    0.78
  13   4  -3    3.44    2.12
   4 -13  -3    2.23    2.98
   4 -13  -3    1.82    0.70
  13   4  -3    1.64    0.72
  -4  13  -3    1.08    0.84
 -13  -4   3    1.59    0.72
  13   4   3    2.16    0.88
  -4  13   3    4.00    2.53
  -4  13   3    1.73    0.79
 -13  -4   3    3.78    2.15
   2 -13  -3   14.07    1.28
  -2  13  -3   11.65    1.37
  13   2  -3   18.73    3.29
   2 -13  -3    9.16    2.33
  13   2  -3   14.16    1.43
 -13  -2   3    9.91    2.46
  13   2   3   13.65    1.60
 -13  -2   3   13.91    1.33
  -2  13   3   14.47    1.35
   0 -13  -3    0.88    1.95
  13   0  -3    5.33    2.00
   0  13  -3    1.51    0.88
   0 -13  -3    3.17    0.72
 -13   0   3    4.24    0.76
  13   0   3    3.08    0.81
 -13   0   3    2.91    1.84
   0  13   3    5.85    1.03
  -2 -13  -3   -2.16    1.79
   2  13  -3    0.19    0.80
   2  13   3    5.71    2.04
  13  -2   3    1.11    0.78
 -13   2   3    0.84    0.76
   2  13   3    1.61    0.68
 -13   4  -3   14.36    3.15
  13  -4  -3    6.50    1.31
 -13   4  -3    8.28    1.16
  13  -4   3    4.77    0.88
  13  -4   3    2.07    2.08
 -13   4   3    7.57    1.24
   6  13  -3   -0.28    0.78
 -13   6  -3    1.77    0.92
  13  -6  -3   -0.28    0.75
 -13   6   3    1.19    0.84
  13  -6   3    0.47    2.23
   8  13  -3   -0.13    1.21
   8  13  -3    0.73    0.91
  13  -8  -3   -0.53    0.84
 -13   8   3    1.50    0.98
 -13  10  -3    0.82    1.16
  13 -10  -3    0.27    0.96
  10  13  -3    0.52    0.98
  10  13  -3    0.32    1.04
 -13  10   3   -0.35    0.94
  10  13   3    1.69    1.13
  12  13  -3   -1.42    0.98
  12  13  -3   -1.10    1.24
  13 -12  -3   -0.47    1.06
 -13  12  -3   -0.82    1.25
  12  13   3    1.23    1.10
 -13  12   3   -0.16    0.94
 -13  14  -3    1.41    1.41
  14  13  -3   -1.42    1.05
 -13  14   3    0.18    0.97
  14  13   3   -0.73    1.10
  14  11  -3   -0.39    0.99
 -11  14  -3   -0.32    1.18
  14  11   3    0.76    1.04
 -11  14   3   -0.55    0.95
  -9  14  -3   -0.96    1.04
  14   9  -3   -0.15    0.84
   9 -14  -3    1.64    1.06
  -9  14   3   -0.16    0.89
  14   9   3    0.52    1.00
   7 -14  -3   13.00    1.58
  -7  14  -3   11.09    1.50
  14   7  -3   11.05    1.52
 -14  -7   3   15.89    1.68
  14   7   3   15.51    1.79
  14   5  -3   17.49    1.54
  -5  14  -3   17.16    1.58
   5 -14  -3   18.00    1.53
  14   5   3   19.71    1.85
 -14  -5   3   19.17    1.91
  -5  14   3   15.37    1.57
  14   3  -3    1.67    0.66
  -3  14  -3    3.74    0.95
   3 -14  -3    3.20    0.81
 -14  -3   3    5.06    1.70
  14   3   3    2.81    0.95
  -3  14   3    2.30    0.89
   1 -14  -3    3.18    2.28
  14   1  -3    6.93    1.22
   1 -14  -3    5.28    0.85
  -1  14  -3    6.05    1.19
 -14  -1   3    8.11    1.70
  -1  14   3    7.17    1.24
  14   1   3    6.27    1.00
  14  -1  -3    0.65    0.75
   1  14  -3    0.42    0.75
 -14   1   3    0.85    0.78
  14  -1   3    0.42    0.89
   1  14   3    1.85    0.78
  14  -3  -3   -0.18    0.77
   3  14  -3    1.21    0.83
 -14   3   3    0.71    0.81
  14  -3   3   -0.56    0.85
   3  14   3    1.10    0.97
   5  14  -3    0.18    0.87
  14  -5  -3    0.84    0.78
 -14   5  -3    2.62    0.97
 -14   5   3    1.72    0.95
  14  -5   3    4.13    2.91
   7  14  -3    4.68    1.00
 -14   7  -3    7.01    1.24
  14  -7  -3    3.31    0.89
 -14   7   3    4.87    1.02
   9  14  -3    0.11    1.07
  14  -9  -3   -0.44    0.99
 -14   9  -3    1.50    1.26
 -14   9   3    0.96    1.00
  11  14  -3   -0.06    1.04
  14 -11  -3    2.78    1.12
  11  14  -3    0.90    1.23
 -14  11  -3    2.21    1.36
 -14  11   3    0.99    1.02
  11  14   3    2.02    1.07
 -14  13  -3   -0.02    1.49
  13  14   3    0.12    1.17
 -14  13   3   -0.59    1.00
  15  14  -3    0.17    1.15
 -14  15  -3    2.45    1.64
 -14  15   3    1.73    1.08
  15  14   3   -0.70    1.27
  15  12  -3    4.79    1.13
 -12  15  -3    5.39    1.43
 -12  15   3    4.53    1.08
  15  12   3    7.64    1.32
  15  10  -3   -1.37    0.97
 -10  15  -3    0.25    1.15
 -10  15   3    0.35    0.97
  15  10   3    1.31    1.07
  15   8  -3    0.30    0.91
  -8  15  -3    0.78    0.99
  -8  15   3    0.19    0.93
 -15  -8   3    1.92    1.29
  15   8   3    1.46    1.13
  -6  15  -3    2.86    0.98
  15   6  -3    2.45    0.79
   6 -15  -3    3.60    1.40
 -15  -6   3    3.52    1.09
  15   6   3    3.72    1.09
  -6  15   3    3.10    0.98
   4 -15  -3    5.83    0.98
  15   4  -3    6.94    1.30
  -4  15  -3    6.83    1.09
  15   4   3    8.19    1.59
 -15  -4   3    7.48    1.50
  -4  15   3    6.76    1.45
  -2  15  -3    3.05    0.85
   2 -15  -3    2.03    0.88
  15   2  -3    3.70    0.83
 -15  -2   3    4.22    0.96
  15   2   3    5.14    1.10
  15   0  -3    3.74    0.84
   0  15  -3    3.60    0.87
   0  15   3    5.32    1.00
  15   0   3    5.17    1.06
 -15   0   3    4.00    0.89
  15  -2  -3   14.23    1.43
   2  15  -3   13.67    1.47
  15  -2   3   11.59    1.60
 -15   2   3   15.82    1.53
   2  15   3   15.23    1.59
  15  -4  -3    0.31    0.80
   4  15  -3    0.94    0.91
 -15   4   3    0.84    0.92
   6  15  -3    3.06    0.98
 -15   6  -3    5.06    1.25
  15  -6  -3    2.57    0.94
 -15   6   3    2.77    0.94
 -15   8  -3   22.55    2.06
  15  -8  -3   19.20    1.76
   8  15  -3   18.76    1.84
 -15   8   3   20.40    1.88
  10  15  -3    5.52    1.31
 -15  10  -3    9.01    1.85
  15 -10  -3    5.98    1.21
 -15  10   3    4.68    1.08
  10  15   3   10.11    1.73
  12  15  -3   -1.22    1.40
  15 -12  -3    1.58    1.31
 -15  12  -3    3.25    1.61
 -15  12   3    0.96    1.08
  12  15   3    0.99    1.14
 -15  14  -3    1.48    1.64
  14  15   3   -0.90    1.18
 -15  14   3    1.23    1.12
 -15  16  -3    5.91    1.82
  16  15  -3    0.45    1.35
 -15  16   3    2.62    1.14
 -13  16  -3    2.27    1.59
  16  13  -3   -1.81    1.12
  16  13   3   -1.99    1.14
 -13  16   3    1.36    1.11
 -11  16  -3    5.49    1.37
  16  11  -3    3.49    1.08
 -11  16   3    3.67    1.07
  16  11   3    4.54    1.29
  16   9  -3   -0.01    0.92
  -9  16  -3    0.08    1.15
  -9  16   3   -0.15    1.01
 -16  -9   3    1.83    1.46
  16   9   3    0.94    1.18
  16   7  -3   14.32    1.57
  -7  16  -3   13.49    1.73
  16   7   3   17.69    1.90
 -16  -7   3   14.35    1.87
  -7  16   3   14.30    1.67
  -5  16  -3   36.99    2.35
  16   5  -3   35.68    2.20
  -5  16   3   37.05    2.39
 -16  -5   3   38.97    2.41
  16   5   3   42.94    2.54
  16   3  -3    1.69    0.74
  -3  16  -3    3.36    0.97
  16   3   3    2.45    1.16
 -16  -3   3    2.23    1.06
  -3  16   3    3.05    1.06
  -1  16  -3    1.62    0.98
  16   1  -3    1.94    0.85
 -16  -1   3    1.80    0.95
  -1  16   3    3.05    1.09
  16   1   3    2.60    1.05
   1  16  -3    4.08    0.96
  16  -1  -3    4.25    0.88
 -16   1   3    4.53    1.03
  16  -1   3    4.57    1.13
  16  -3  -3    4.75    0.92
   3  16  -3    4.38    1.03
 -16   3   3    5.13    1.10
  16  -3   3    2.30    1.10
   5  16  -3    6.56    1.16
  16  -5  -3    8.32    1.46
 -16   5   3    4.66    1.07
  16  -7  -3    2.11    0.99
   7  16  -3    3.19    1.15
 -16   7   3    2.32    1.13
  16  -9  -3    1.70    1.15
 -16   9  -3    3.49    1.52
   9  16  -3    0.14    1.23
 -16   9   3   -0.69    1.11
   9  16   3    2.88    1.06
  16 -11  -3    1.28    1.28
  11  16  -3   -0.19    1.39
 -16  11   3    0.35    1.12
  11  16   3    0.43    1.16
 -16  13  -3    3.38    1.76
  13  16   3   -0.71    1.18
 -16  13   3    0.23    1.17
 -16  15  -3    2.27    1.90
 -16  15   3    2.32    1.14
  17  14  -3   -1.49    1.63
 -14  17  -3    1.01    1.58
 -14  17   3    1.27    1.20
 -12  17  -3    4.18    1.43
  17  12  -3    0.96    1.13
  17  12   3    1.75    1.12
 -12  17   3    3.10    1.17
 -10  17  -3    5.51    1.29
  17  10  -3    3.01    1.06
 -10  17   3    4.44    1.17
  17  10   3    1.90    1.18
  17   8  -3    9.30    1.63
  -8  17  -3    9.03    1.73
  -8  17   3   10.99    1.75
  17   8   3   11.39    1.91
 -17  -8   3    9.60    2.05
  -6  17  -3   -0.14    1.09
  17   6  -3    0.11    0.92
 -17  -6   3    0.26    1.28
  -6  17   3    0.67    1.12
  17   6   3    0.60    1.24
  -4  17  -3    1.24    0.93
  17   4  -3    3.04    0.83
  -4  17   3    2.77    1.23
 -17  -4   3    0.67    1.20
  17   4   3    2.86    1.23
  -2  17  -3    0.44    0.97
  17   2  -3   -0.35    0.82
 -17  -2   3   -0.96    1.04
  -2  17   3    1.66    1.18
  17   2   3    1.42    1.18
  17   0  -3    2.89    0.92
   0  17  -3    3.29    1.05
  17   0   3    2.12    1.20
 -17   0   3    2.00    1.06
   2  17  -3   13.30    1.64
  17  -2  -3   14.13    1.60
  17  -2   3    8.51    1.83
 -17   2   3   11.86    1.78
  17  -4  -3    9.85    1.59
   4  17  -3   11.11    1.69
 -17   4   3    7.79    1.24
  17  -6  -3    8.23    1.60
   6  17  -3    8.46    1.31
 -17   6   3    6.41    1.33
 -17   8  -3    9.03    1.96
 -17   8   3    0.34    1.18
  17 -10  -3    1.19    1.25
 -17  10  -3    6.42    1.72
  10  17  -3    1.14    1.36
 -17  10   3    1.97    1.27
  10  17   3    2.29    1.19
 -17  12   3    2.60    1.20
  12  17   3    0.45    1.23
 -17  14  -3    5.66    2.02
 -17  14   3    2.34    1.20
 -13  18  -3    1.84    1.51
  18  13  -3   -2.18    1.12
  18  13   3   -2.66    1.25
 -13  18   3    1.35    1.15
 -11  18  -3    2.40    1.96
 -11  18   3    0.97    1.29
  18  11   3   -2.01    1.36
  18   9  -3    0.69    0.94
  -9  18  -3    2.43    1.28
  -9  18   3    4.22    1.24
  18   9   3    1.49    1.17
  -7  18  -3   -0.10    1.18
  18   7  -3    0.90    0.89
  18   7   3    0.73    1.16
  -7  18   3    1.42    1.27
 -18  -7   3   -2.24    1.42
  18   5  -3    0.62    0.81
  -5  18  -3    1.69    1.08
  -5  18   3    4.07    1.37
 -18  -5   3    0.17    1.34
  18   5   3    2.62    1.20
  -3  18  -3    3.31    1.08
  18   3  -3    3.97    1.02
  -3  18   3    6.03    1.33
  18   3   3    4.22    1.29
 -18  -3   3    0.52    1.26
  -1  18  -3   -0.58    1.04
  18   1  -3    0.50    0.82
  -1  18   3    2.85    1.19
 -18  -1   3   -1.66    1.10
  18   1   3   -1.47    1.72
   1  18  -3    0.71    1.07
  18  -1  -3    1.11    0.89
  18  -1   3   -0.49    1.18
 -18   1   3   -0.46    1.20
   3  18  -3    3.87    1.26
  18  -3  -3    3.42    1.10
 -18   3   3    0.54    1.22
  18  -5  -3   -0.63    1.01
   5  18  -3    0.09    1.25
 -18   5   3   -1.47    1.18
  18  -7  -3   -1.06    1.13
   7  18  -3    0.95    1.32
 -18   7   3   -0.25    1.29
   9  18  -3    4.18    1.52
  18  -9  -3    4.59    1.32
 -18   9   3    3.84    1.36
 -18  11  -3   12.84    2.04
  18 -11  -3    7.05    1.55
 -18  11   3    6.80    1.77
 -18  13  -3   12.60    2.25
 -12  19  -3    2.80    1.41
  19  12  -3    1.04    1.16
 -12  19   3    3.35    1.26
  19  12   3   -2.34    1.15
  19  10  -3    2.27    1.54
 -10  19  -3    3.47    1.33
 -10  19   3    5.28    1.51
  19  10   3    0.14    1.16
  19   8  -3    0.52    0.92
  -8  19  -3    0.47    1.29
  -8  19   3    1.04    1.34
  19   8   3   -0.47    1.20
  -6  19  -3    2.11    1.17
  19   6  -3    3.12    1.03
  19   6   3    0.89    1.24
 -19  -6   3   -1.39    1.54
  -6  19   3    5.20    1.43
  -4  19  -3    1.44    1.15
  19   4  -3    1.43    0.96
  19   4   3   -1.45    1.28
  -4  19   3    3.99    1.46
  -2  19  -3    0.76    1.14
  19   2  -3   -0.10    0.95
  19   2   3   -1.57    1.23
   0  19  -3    0.10    1.18
  19   0  -3   -0.07    0.90
  19   0   3   -2.64    1.22
  19  -2  -3    3.98    1.09
   2  19  -3    5.74    1.33
 -19   2   3   -0.79    1.33
  19  -2   3   -1.56    1.27
  19  -4  -3    1.32    1.12
   4  19  -3    2.35    1.35
 -19   4   3   -0.83    1.37
   6  19  -3    4.79    1.40
  19  -6  -3    1.95    1.16
 -19   6   3    2.48    1.45
  19  -8  -3    2.46    1.33
   8  19  -3    2.53    1.49
 -19   8   3    2.76    1.45
  10  19  -3   -0.33    1.60
  19 -10  -3    0.36    1.37
  10  19   3   -2.59    1.26
 -19  10   3    0.76    1.45
 -19  12  -3    7.94    2.20
 -19  12   3    1.79    1.38
  -9  20  -3    2.01    1.36
  20   9  -3   -0.33    1.01
  -9  20   3    4.53    1.44
  -7  20  -3    0.60    1.60
  20   7   3   -3.10    2.12
  -7  20   3    3.41    1.50
  20   5  -3   -0.49    0.87
  -5  20  -3   -0.03    1.23
  20   5   3   -1.84    1.27
  -5  20   3    2.85    1.54
  -3  20  -3    4.58    1.28
  20   3  -3    3.52    1.04
  20   3   3    0.62    1.27
  -1  20  -3   -1.48    1.24
  20   1  -3    0.19    0.97
   1  20  -3    1.43    1.38
  20  -1  -3    0.32    1.08
   3  20  -3    0.81    1.40
  20  -3  -3    0.40    1.08
   5  20  -3    1.73    1.40
  20  -5  -3    1.44    1.19
 -20   5   3   -0.98    1.40
  20  -7  -3    0.42    1.27
   7  20  -3    0.41    1.47
 -20   7   3    1.40    1.44
  20  -9  -3    1.31    2.18
   9  20  -3   -2.28    1.67
 -20   9   3    0.63    1.48
  21   8  -3    0.99    1.03
  -8  21  -3    1.79    1.19
  -8  21   3    4.45    1.58
  -6  21  -3    2.21    1.25
  21   6  -3    0.90    0.90
  -6  21   3    7.50    2.26
  21   6   3   -1.45    1.25
  -4  21  -3    1.97    1.39
  21   4  -3    0.94    0.86
  21   4   3   -2.40    1.49
  -2  21  -3    0.49    1.48
  -2  21   3    4.01    1.75
   0  21  -3    2.18    1.46
  21   0  -3    0.70    1.23
   2  21  -3    0.96    1.46
  21  -2  -3   -0.26    1.14
   4  21  -3    1.63    1.55
 -21   4   3   -2.06    1.51
   6  21  -3    1.90    2.36
  21  -6  -3   -0.64    1.29
 -21   6   3    0.99    1.58
   8  21  -3    3.12    1.69
  21  -8  -3   -0.19    1.38
 -21   8   3    4.73    1.58
  -5  22  -3    1.66    1.27
  -3  22  -3    0.85    1.33
  22   3  -3   -0.08    0.86
  -1  22  -3    1.23    1.47
  22   1  -3    0.42    0.93
  22  -1  -3    0.80    1.13
   1  22  -3    1.04    1.50
  22  -3  -3    0.11    1.15
   3  22  -3    1.84    1.53
 -22   3   3   -1.11    1.58
  22  -3   3   -3.44    1.47
  22  -5  -3   -1.29    1.25
   5  22  -3    1.74    1.57
 -22   5   3    3.94    1.58
   0   0  -4  230.90   10.25
   0   0  -4  234.38   10.25
   0   0   4  244.02   11.06
  -1  -1  -4    4.02    0.58
  -1   1  -4    3.35    0.54
   1   1  -4    3.72    0.59
  -1  -1  -4    3.45    0.57
   1   1  -4    2.95    0.53
  -1   1  -4    2.35    0.47
   1  -1  -4    3.64    0.58
   1  -1  -4    3.13    1.40
  -1   1   4    7.64    2.00
   1  -1   4    3.28    1.24
  -1  -1   4    3.41    1.51
   1  -1   4    3.41    1.32
   1   1   4    1.91    1.23
   0  -2  -4  196.06    9.41
  -2   0  -4  199.44    8.67
   0   2  -4  195.01    8.68
   2   0  -4  196.41    9.53
   0  -2  -4  197.81    8.68
   0   2  -4  200.75    8.66
  -2   0  -4  199.19    8.66
   2   0  -4  198.41    8.70
   2   0  -4  200.11    8.67
   2   0   4  212.33    9.45
   0  -2   4  193.18    9.48
   0   2   4  193.20    8.66
  -2   0   4  195.84    9.54
   2   0   4  207.28    9.39
   0  -2   4  202.78    9.56
   0   2   4  203.04    9.45
  -2   2  -4   74.96    3.31
   2  -2  -4   69.04    4.30
   2   2  -4   75.22    3.32
  -2   2  -4   73.39    3.32
   2   2  -4   72.73    3.35
   2  -2  -4   75.58    3.35
  -2  -2  -4   75.83    3.34
   2  -2   4   73.77    4.20
   2  -2   4   74.11    4.25
   2   2   4   75.53    4.14
  -2  -2   4   72.39    4.46
  -2   2   4   72.47    4.38
  -2   2   4   71.78    3.32
  -3  -1  -4   53.26    2.48
   1  -3  -4   52.45    3.53
  -3  -1  -4   52.87    2.43
   3   1  -4   53.47    2.53
   3   1  -4   52.71    2.48
  -1   3  -4   51.61    2.46
   3   1  -4   49.04    3.65
  -1   3  -4   53.58    2.43
   1  -3  -4   53.95    2.48
  -1   3   4   57.29    3.59
   1  -3   4   49.96    3.56
  -1   3   4   54.29    2.46
   3   1   4   53.32    3.31
   1  -3   4   53.39    3.57
  -3  -1   4   50.37    3.68
   3   1   4   53.43    3.33
  -1  -3  -4   69.93    3.17
   1   3  -4   72.92    3.15
  -1  -3  -4   70.75    4.04
   3  -1  -4   65.55    4.27
   3  -1  -4   70.02    3.18
  -3   1  -4   68.93    3.14
   1   3  -4   71.14    3.19
  -3   1  -4   71.83    3.16
   1   3   4   62.31    3.16
  -1  -3   4   70.52    4.27
   1   3   4   67.18    4.03
  -3   1   4   71.74    3.20
  -1  -3   4   68.29    4.36
   3  -1   4   72.99    4.08
   3  -1   4   73.49    4.08
  -3   1   4   68.18    4.26
   3   3  -4   19.38    1.25
   3  -3  -4   18.94    2.57
  -3   3  -4   19.28    1.09
  -3   3  -4   18.88    1.12
  -3  -3  -4   20.85    1.25
   3   3  -4   19.18    1.13
   3  -3  -4   19.81    1.22
  -3   3   4   18.40    2.69
  -3  -3   4   17.05    2.67
   3  -3   4   13.44    2.26
   3   3   4   19.92    1.01
   3  -3   4   17.78    2.19
  -3  -3   4   18.38    2.62
  -3   3   4   19.29    1.17
   3   3   4   17.47    2.05
  -4  -2  -4   15.09    1.11
   2  -4  -4   13.45    2.42
  -2   4  -4   13.87    0.92
   4   2  -4   14.20    1.01
   2  -4  -4   14.94    1.04
   4   2  -4   15.51    1.14
   4   2  -4   14.67    2.37
  -2   4  -4   14.98    1.02
   4   2   4   16.07    1.89
  -4  -2   4   12.09    2.60
  -2   4   4   13.43    2.31
  -2   4   4   14.73    1.01
   4   2   4   15.40    1.89
   2  -4   4   14.54    2.24
   2  -4   4   12.74    2.24
   4   0  -4   60.27    2.80
   0  -4  -4   61.41    3.80
  -4   0  -4   61.08    2.79
   0   4  -4   60.56    2.73
  -4   0  -4   59.79    2.73
   0   4  -4   59.24    2.78
   4   0  -4   58.03    3.92
   0  -4  -4   60.26    2.79
   0   4   4   63.04    2.75
   4   0   4   60.96    3.56
   0  -4   4   60.17    3.98
  -4   0   4   55.90    3.96
   0   4   4   63.92    3.76
   0  -4   4   57.65    3.98
   4   0   4   61.55    3.61
  -4   2  -4   54.18    2.52
  -2  -4  -4   56.85    3.36
  -2  -4  -4   54.88    2.58
   4  -2  -4   50.59    3.75
   4  -2  -4   55.70    2.58
   2   4  -4   55.25    2.59
   2   4  -4   56.75    2.52
  -4   2  -4   54.20    2.51
  -4   2   4   53.94    2.56
  -2  -4   4   55.65    3.88
  -2  -4   4   52.80    3.76
  -4   2   4   54.10    3.91
   4  -2   4   59.36    3.56
   4  -2   4   55.70    3.56
   2   4   4   54.09    3.39
   2   4   4   52.80    2.47
   4  -4  -4   75.03    3.27
  -4   4  -4   74.08    3.24
  -4   4  -4   70.15    3.19
   4   4  -4   73.77    3.31
  -4   4  -4   65.30    4.55
   4  -4  -4   68.96    4.49
   4   4  -4   74.39    3.24
  -4  -4  -4   77.40    3.29
  -4   4   4   71.06    4.52
   4   4   4   63.55    3.14
   4   4   4   75.86    3.76
   4   4   4   69.42    3.78
  -4  -4   4   69.27    4.50
   4  -4   4   65.77    4.74
  -4   4   4   73.25    3.26
  -4  -4   4   70.84    4.56
   3  -5  -4   16.17    1.14
   5   3  -4   16.34    1.20
  -3   5  -4   13.67    2.57
  -5  -3  -4   17.08    1.14
  -3   5  -4   15.77    1.09
   3  -5  -4   18.22    2.57
   5   3  -4   15.99    1.09
   5   3   4   16.36    0.84
  -3   5   4   16.98    1.11
   3  -5   4   14.27    2.53
  -5  -3   4   15.77    2.75
   5   3   4   16.41    1.75
  -3   5   4   13.81    2.61
   5   3   4   15.67    1.60
   5   1  -4    0.04    1.36
  -5  -1  -4    0.33    0.38
   1  -5  -4   -0.11    0.50
  -5  -1  -4    0.66    0.50
  -1   5  -4    0.21    0.54
   1  -5  -4    0.44    1.40
   5   1  -4    0.11    0.51
  -1   5   4    0.69    0.48
  -1   5   4    1.70    1.47
   5   1   4    1.28    1.07
   1  -5   4    0.63    1.37
   5   1   4    1.13    1.12
   1  -5   4    0.41    1.30
  -5  -1   4    0.12    1.39
   1   5  -4    1.23    0.41
   1   5  -4    1.23    0.52
   5  -1  -4    0.96    0.49
   5  -1  -4    2.65    1.47
  -1  -5  -4    0.72    1.33
  -1  -5  -4    1.02    0.54
  -1  -5   4    2.40    1.60
  -5   1   4    0.58    1.59
  -1  -5   4    0.78    1.42
  -5   1   4    0.93    0.53
   5  -1   4    3.48    1.26
   1   5   4    2.73    1.43
   5  -1   4    1.02    1.28
   3   5  -4    0.03    0.41
   5  -3  -4    0.08    1.35
   5  -3  -4   -0.03    0.50
   3   5  -4   -0.46    0.58
  -3  -5  -4    0.08    0.53
  -3  -5  -4    1.16    1.05
  -5   3  -4    0.25    0.42
  -5   3   4   -0.82    1.52
   3   5   4    0.15    1.17
  -3  -5   4    0.25    1.57
   3   5   4    1.21    0.38
  -3  -5   4   -2.58    1.48
  -5   3   4    0.10    0.52
  -5   5  -4    5.57    1.60
   5   5  -4    6.18    1.01
   5  -5  -4    5.70    1.72
   5   5  -4    7.24    0.82
  -5   5  -4    5.78    0.81
   5  -5  -4    6.75    0.91
  -5   5   4    6.09    0.91
  -5   5   4    6.35    1.90
   5  -5   4    6.50    1.81
  -5  -5   4    5.36    1.62
  -5  -5   4    6.88    2.08
   4  -6  -4   33.54    3.31
  -4   6  -4   36.77    1.85
  -4   6  -4   31.77    3.15
   6   4  -4   37.24    1.83
   6   4  -4   38.06    1.94
   4  -6  -4   38.39    1.89
  -6  -4   4   34.25    3.32
  -4   6   4   36.91    3.40
   4  -6   4   35.37    3.21
  -4   6   4   37.04    1.87
   2  -6  -4    4.40    0.83
  -2   6  -4    4.67    0.59
   6   2  -4    5.15    1.87
   6   2  -4    4.31    0.83
   6   2  -4    4.90    1.05
  -2   6  -4    5.10    0.84
   2  -6  -4    4.05    1.60
  -2   6   4    5.22    0.83
   2  -6   4    7.28    1.94
   6   2   4    7.18    1.34
   6   2   4    7.50    1.47
  -6  -2   4    5.35    1.81
  -2   6   4    5.22    1.83
   0  -6  -4    0.66    1.46
   0  -6  -4    0.10    0.55
   6   0  -4    0.17    0.51
  -6   0  -4    0.21    0.35
   6   0  -4   -1.44    1.43
   0   6  -4   -0.30    0.53
  -6   0   4    0.00    0.57
   6   0   4    2.15    1.16
   6   0   4    0.67    1.08
  -6   0   4   -0.09    1.43
   0  -6   4   -0.28    1.42
   0   6   4    0.79    0.48
   0  -6   4    0.74    1.45
   0   6   4    0.21    1.56
   6  -2  -4    0.06    0.53
   2   6  -4    0.14    0.57
   2   6  -4    0.17    0.40
  -2  -6  -4   -0.20    0.53
   6  -2  -4   -0.23    1.42
  -2  -6  -4   -0.73    1.17
  -6   2  -4    0.28    0.39
  -6   2   4    0.09    0.55
   2   6   4    0.22    1.32
  -2  -6   4    0.42    1.39
  -2  -6   4    1.65    1.45
   6  -2   4   -2.28    1.24
   2   6   4    0.15    0.45
  -6   2   4   -0.71    1.56
  -4  -6  -4    0.40    0.60
  -4  -6  -4   -0.46    0.94
   4   6  -4    0.24    0.55
  -6   4  -4    0.72    1.38
   4   6  -4    0.39    0.44
   6  -4  -4   -0.12    0.52
   6  -4  -4   -0.83    1.62
  -6   4  -4    0.46    0.45
   6  -4   4    1.59    1.54
  -4  -6   4   -0.09    1.51
   4   6   4    0.83    0.33
  -4  -6   4    1.03    1.39
  -6   4   4    0.68    1.65
  -6   4   4    0.50    0.52
   4   6   4    1.16    1.04
   6  -6  -4    9.42    1.01
  -6   6  -4    9.29    1.00
   6   6  -4   10.32    1.11
  -6   6  -4    8.23    2.17
   6   6  -4    9.85    0.93
   6  -6  -4    6.00    1.89
  -6  -6   4    6.56    1.94
  -6   6   4    9.66    2.21
   6  -6   4   11.41    2.81
  -6   6   4    9.47    1.05
  -6  -6   4   11.38    2.50
  -5   7  -4    9.85    1.06
   5  -7  -4    9.75    1.04
   7   5  -4    9.25    1.02
   7   5  -4   10.23    1.11
   5  -7  -4   12.20    2.69
  -5   7  -4    9.73    2.08
  -5   7   4   10.36    2.24
  -7  -5   4   12.97    2.25
  -7  -5   4    7.12    1.93
  -5   7   4   10.97    1.08
   5  -7   4   14.62    2.87
  -3   7  -4    2.46    1.52
   7   3  -4    4.89    1.03
   3  -7  -4    4.47    0.84
   3  -7  -4    4.97    1.74
   7   3  -4    4.61    0.89
   7   3  -4    4.68    1.54
  -3   7  -4    5.50    0.89
   3  -7   4    2.84    1.79
  -3   7   4    5.01    1.95
  -7  -3   4    2.53    1.66
  -3   7   4    5.67    0.92
   7   1  -4    0.99    0.53
  -1   7  -4    1.20    0.34
   7   1  -4    2.23    1.55
   1  -7  -4    1.09    1.66
  -7  -1  -4    1.23    0.33
  -1   7  -4    1.61    0.61
   1  -7  -4    0.76    0.51
   1  -7   4    2.68    1.76
  -1   7   4    1.72    1.68
   7   1   4    2.36    0.96
   7   1   4    1.44    1.05
  -7  -1   4    1.33    1.52
  -1   7   4    1.30    0.57
  -7  -1   4    0.77    0.59
   7  -1  -4    0.87    1.48
   7  -1  -4    0.71    0.56
  -1  -7  -4    0.16    1.38
  -1  -7  -4    0.76    0.52
  -7   1  -4    1.03    0.42
   1   7  -4    1.07    0.62
   1   7   4    1.05    1.48
  -7   1   4    0.45    0.48
   1   7   4    0.91    0.49
  -1  -7   4    1.01    1.34
  -7   1   4    0.66    1.63
   7  -1   4    1.77    1.24
  -1  -7   4   -0.65    1.42
  -7   3  -4    2.11    1.45
  -7   3  -4    1.21    0.43
  -3  -7  -4    0.83    0.54
   7  -3  -4    1.40    0.57
   3   7  -4    1.14    0.58
  -3  -7  -4   -0.23    1.19
   3   7  -4    0.96    0.41
   7  -3  -4    0.02    1.41
   3   7   4    2.80    0.60
  -3  -7   4    1.20    1.62
  -3  -7   4    1.06    1.48
   7  -3   4    0.28    1.36
  -7   3   4    1.25    0.59
  -7   3   4    1.92    1.45
   3   7   4    2.66    1.32
  -7   5  -4    8.16    0.96
   7  -5  -4    8.02    0.99
   7  -5  -4    7.14    1.80
   5   7  -4    8.23    0.85
  -7   5  -4    6.76    1.92
   5   7  -4    7.67    1.04
  -5  -7   4   12.08    2.57
  -5  -7   4   10.04    2.50
  -7   5   4    5.49    2.14
  -7   5   4    8.13    1.01
   7  -5   4   11.93    2.75
  -7   7  -4    2.90    0.72
   7   7  -4    2.46    0.57
   7  -7  -4    2.63    1.84
   7  -7  -4    1.93    0.58
   7   7  -4    2.71    0.72
  -7   7  -4    3.92    1.76
   7  -7   4    3.72    0.69
   7  -7   4    2.75    1.93
  -7   7   4    2.64    1.90
  -7  -7   4   -0.19    1.95
  -7   7   4    2.67    0.67
  -7  -7   4    1.87    1.75
   8   6  -4    5.80    1.14
   6  -8  -4    7.56    2.14
  -6   8  -4   13.76    2.91
   6  -8  -4    6.08    1.02
   8   6  -4    7.08    1.01
  -6   8  -4    6.88    1.05
  -8  -6   4    6.13    2.10
   6  -8   4    6.82    1.96
  -6   8   4    6.92    1.14
  -8  -6   4    6.76    2.13
  -6   8   4    4.16    2.14
   4  -8  -4   19.74    2.97
  -4   8  -4   19.43    2.81
   8   4  -4   19.45    1.26
   4  -8  -4   19.17    1.25
   8   4  -4   18.40    1.40
  -4   8  -4   19.08    1.32
  -4   8   4   14.61    2.57
  -8  -4   4   13.35    2.92
   4  -8   4   16.40    3.15
  -4   8   4   18.63    1.31
   2  -8  -4   25.25    1.46
   2  -8  -4   27.83    3.11
   8   2  -4   25.05    1.44
   8   2  -4   26.03    2.85
  -2   8  -4   24.71    1.47
  -2   8  -4   20.51    2.94
  -2   8   4   20.17    3.11
   2  -8   4   22.95    2.98
  -2   8   4   23.75    1.41
  -8  -2   4   23.32    3.06
  -8  -2   4   24.03    1.48
   0  -8  -4    4.34    0.92
   8   0  -4    4.34    1.67
   0   8  -4    5.71    0.96
  -8   0  -4    4.77    0.51
   0   8  -4    4.55    0.51
   0  -8  -4    5.49    2.04
   8   0  -4    5.39    0.92
   8   0   4    4.60    1.33
   0  -8   4    5.54    1.83
  -8   0   4    5.58    1.94
   0   8   4    5.47    1.90
   8   0   4    2.83    1.17
  -8   0   4    4.17    0.86
   0   8   4    4.05    0.83
   8  -2  -4    1.19    1.47
   2   8  -4    1.79    0.40
  -8   2  -4    2.12    0.44
  -8   2  -4    0.21    1.29
   2   8  -4    1.59    0.64
   8  -2  -4    1.91    0.56
  -2  -8  -4    3.65    1.45
  -2  -8  -4    1.70    0.56
   8  -2   4    1.31    1.38
  -8   2   4    1.59    1.52
   2   8   4    2.45    0.50
  -8   2   4    1.66    0.57
  -2  -8   4    1.75    1.68
  -2  -8   4    2.15    1.63
  -4  -8  -4   22.68    2.08
  -8   4  -4   21.29    1.30
   8  -4  -4   17.62    2.89
  -8   4  -4   17.81    2.83
   8  -4  -4   22.12    1.37
   4   8  -4   20.61    1.22
  -4  -8  -4   21.60    1.35
   4   8  -4   21.69    1.38
   4   8   4   24.51    1.11
   8  -4   4   17.78    2.73
  -8   4   4   21.62    1.36
   4   8   4   23.21    2.05
  -4  -8   4   21.93    2.92
  -4  -8   4   18.82    2.88
  -8   4   4   16.53    2.81
  -8   6  -4    5.03    1.81
   8  -6  -4    2.84    0.62
   6   8  -4    4.76    0.88
  -8   6  -4    5.28    1.01
   6   8  -4    4.49    0.74
   8  -6  -4    2.50    1.81
  -6  -8   4    5.75    1.80
  -6  -8   4    2.50    1.99
   8  -6   4    5.35    0.79
   8  -6   4    4.25    1.93
  -8   6   4    4.73    0.97
  -8   6   4    3.16    1.94
   8   8  -4   14.16    1.32
   8  -8  -4   15.19    1.25
  -8   8  -4   14.92    1.35
   8   8  -4   14.69    1.23
  -8  -8   4   12.94    3.09
  -8  -8   4   13.84    3.10
  -8   8   4   15.15    1.39
   8  -8   4   14.79    3.20
   7  -9  -4    0.90    0.70
  -7   9  -4    3.47    1.95
   9   7  -4    2.42    0.84
   7  -9  -4    1.03    2.54
   9   7  -4    0.91    0.63
  -7   9  -4    1.09    0.80
  -7   9   4    1.02    0.71
  -7   9   4    0.00    2.55
  -9  -7   4    3.07    1.91
  -9  -7   4   -2.47    2.11
   7  -9   4    5.20    1.97
   9   5  -4    0.78    0.57
   5  -9  -4    1.41    1.85
   9   5  -4    1.10    0.74
   5  -9  -4    1.36    0.57
  -5   9  -4    1.01    0.68
  -5   9  -4   -2.47    1.76
   5  -9   4    3.43    1.96
  -9  -5   4   -0.39    1.75
  -5   9   4    1.33    0.70
  -5   9   4    0.34    1.95
   9   3  -4    0.77    0.55
  -3   9  -4    0.20    0.58
   9   3  -4   -1.54    1.40
   3  -9  -4    0.50    1.81
  -3   9  -4   -0.12    1.63
   3  -9  -4    0.52    0.58
  -3   9   4   -0.21    0.62
  -9  -3   4    0.56    1.70
  -9  -3   4   -0.37    0.65
  -3   9   4   -0.23    1.87
   3  -9   4    1.14    1.83
  -1   9  -4   -2.34    1.62
   9   1  -4    1.46    1.49
  -1   9  -4   -0.03    0.60
   9   1  -4    0.17    0.54
   1  -9  -4   -0.95    1.63
   1  -9  -4    0.17    0.61
   1  -9   4    1.57    1.65
  -1   9   4   -1.12    1.69
  -1   9   4   -0.30    0.61
  -9  -1   4   -0.11    0.58
  -9  -1   4    1.49    1.67
   9   1   4   -0.11    0.89
   9   1   4   -0.74    0.88
  -1  -9  -4    8.14    1.87
   1   9  -4    3.91    0.69
  -9   1  -4    4.68    0.76
   9  -1  -4    5.04    1.68
   9  -1  -4    3.46    0.61
  -1  -9  -4    4.98    0.71
   1   9   4    5.94    0.83
  -1  -9   4    3.75    1.88
  -9   1   4    1.65    1.84
   1   9   4    4.42    1.72
  -1  -9   4    6.27    1.98
   9  -1   4    2.28    1.39
  -9   1   4    4.64    0.90
  -3  -9  -4    1.28    1.33
  -3  -9  -4   -0.12    0.62
   9  -3  -4   -0.48    1.56
  -9   3  -4    0.61    0.50
   3   9  -4    0.13    0.63
   3   9  -4   -0.23    0.38
   9  -3  -4   -0.48    0.60
  -9   3  -4   -1.16    1.50
   9  -3   4    1.23    1.52
  -9   3   4    0.40    1.65
  -9   3   4   -0.15    0.60
  -3  -9   4   -0.62    1.55
   3   9   4    1.72    1.40
  -3  -9   4    1.19    1.61
   9  -5  -4    0.30    0.61
   9  -5  -4    2.02    1.68
  -9   5  -4    1.22    1.62
  -5  -9  -4    0.48    1.01
   5   9  -4    0.34    0.49
  -9   5  -4    0.26    0.62
   5   9  -4    0.19    0.63
  -9   5   4    0.29    0.66
  -5  -9   4    2.96    1.99
   9  -5   4    3.02    1.82
  -9   5   4   -1.01    1.66
   5   9   4    2.05    1.03
   9  -5   4    1.29    0.52
  -5  -9   4   -0.46    1.61
  -9   7  -4   -0.01    0.71
   7   9  -4    0.14    0.56
  -9   7  -4    1.26    1.98
   9  -7  -4    0.26    0.63
   7   9  -4   -0.48    0.74
   9  -7   4    1.16    2.00
  -9   7   4    0.23    0.75
   9  -7   4   -1.06    0.57
   9   9  -4   -0.13    0.68
   9  -9  -4    0.29    0.73
  -9   9  -4    0.38    0.84
   9   9  -4    0.80    0.81
  -9   9   4    0.43    0.81
   8 -10  -4   28.65    1.77
  10   8  -4   27.62    1.89
  -8  10  -4   22.81    2.66
  10   8  -4   27.64    1.75
  -8  10   4   28.88    1.85
   6 -10  -4   13.14    1.26
  10   6  -4   12.91    1.27
   6 -10  -4    8.20    2.42
  -6  10  -4   14.25    1.32
  -6  10   4   13.70    1.35
  -6  10   4    8.07    2.38
   6 -10   4   10.71    3.98
  -4  10  -4   15.54    1.32
  10   4  -4   15.61    2.75
  10   4  -4   15.22    1.24
  -4  10  -4   13.53    2.88
   4 -10  -4   12.36    3.19
   4 -10  -4   15.20    1.31
   4 -10   4   19.79    3.17
 -10  -4   4   13.73    3.16
  -4  10   4   12.30    2.67
  -4  10   4   14.96    1.36
 -10  -4   4   15.24    1.30
  -2  10  -4    6.86    2.05
  -2  10  -4    8.35    1.12
  10   2  -4    6.16    1.79
   2 -10  -4    7.47    2.04
  10   2  -4    8.32    1.07
   2 -10  -4    8.91    1.08
   2 -10   4   12.60    2.88
  -2  10   4   12.12    3.07
 -10  -2   4    7.70    1.02
 -10  -2   4    6.98    2.17
  -2  10   4    9.23    1.10
  10   0  -4    0.49    0.60
   0  10  -4    0.23    0.60
  10   0  -4    2.24    1.54
   0 -10  -4    0.48    0.59
   0 -10  -4   -0.28    1.81
 -10   0   4   -0.19    1.94
   0 -10   4    3.74    1.84
   0  10   4    1.07    1.78
 -10   0   4    0.32    0.58
  10   0   4   -0.04    1.21
   0  10   4    1.16    0.61
  -2 -10  -4   22.80    2.99
   2  10  -4   24.37    1.51
 -10   2  -4   22.19    2.58
  -2 -10  -4   23.83    1.46
  10  -2  -4   22.55    1.43
 -10   2  -4   21.46    1.28
 -10   2   4   15.44    3.09
   2  10   4   26.04    2.86
  -2 -10   4   17.14    3.41
   2  10   4   26.05    1.33
 -10   2   4   22.13    1.45
  -2 -10   4   19.57    3.02
  10  -4  -4   10.38    2.44
  10  -4  -4   14.52    1.23
   4  10  -4   14.45    1.25
   4  10  -4   13.24    0.99
 -10   4  -4   20.11    2.93
 -10   4  -4   15.62    1.17
  -4 -10   4   16.71    2.75
  10  -4   4   10.80    2.86
 -10   4   4   15.06    1.25
  10  -4   4   15.57    1.21
   4  10   4   20.11    2.39
 -10   6  -4   13.36    1.21
   6  10  -4   11.82    1.25
   6  10  -4   11.92    1.09
 -10   6  -4   10.97    2.47
  10  -6  -4   12.28    1.20
  10  -6   4    6.28    2.14
  10  -6   4   10.21    1.16
 -10   8  -4   33.89    4.07
 -10   8  -4   32.04    1.96
   8  10  -4   30.99    1.96
   8  10  -4   31.58    1.86
 -10   8   4   33.62    1.98
  10  10  -4    6.77    1.35
  10 -10  -4    7.58    1.38
 -10  10  -4    6.53    1.10
  10  10  -4    7.32    1.47
 -10  10   4    7.32    1.41
  -9  11  -4    2.05    1.03
  11   9  -4    1.72    0.82
  11   9  -4    1.97    1.03
   9 -11  -4    0.98    0.92
  -9  11   4    1.40    0.90
  11   7  -4    1.27    0.94
  -7  11  -4    1.87    0.93
   7 -11  -4    1.52    0.77
  -7  11   4    0.79    0.84
  11   5  -4    1.36    0.71
   5 -11  -4    1.23    0.71
   5 -11  -4    2.01    2.03
  -5  11  -4    0.96    1.17
 -11  -5   4    0.98    0.76
  -5  11   4   -0.96    2.16
  -5  11   4    1.42    0.85
  11   3  -4    7.54    1.11
   3 -11  -4    8.06    1.08
   3 -11  -4    5.64    2.04
  11   3  -4    0.53    2.85
  -3  11  -4    7.13    1.14
  -3  11   4    8.72    2.28
  -3  11   4    8.04    1.17
 -11  -3   4    7.57    1.07
  11   1  -4   21.86    1.46
   1 -11  -4   20.25    3.28
  -1  11  -4   20.61    1.45
  11   1  -4   21.58    3.09
   1 -11  -4   21.12    1.41
 -11  -1   4   20.90    1.40
 -11  -1   4   16.27    3.24
  -1  11   4   20.27    3.37
  -1  11   4   22.22    1.44
  -1 -11  -4    8.96    2.34
 -11   1  -4    8.02    2.15
  11  -1  -4   13.36    1.18
   1  11  -4   11.60    1.24
  -1 -11  -4   11.74    1.17
  11  -1  -4   11.36    2.87
   1  11   4   14.33    2.93
  11  -1   4    9.84    1.97
 -11   1   4   12.44    1.14
 -11   3  -4    2.17    0.57
  11  -3  -4    0.96    0.64
   3  11  -4    1.46    0.77
 -11   3  -4    3.83    1.74
  -3 -11  -4    4.64    1.87
  11  -3   4    1.67    0.67
 -11   3   4    1.22    0.67
  11  -3   4    1.81    1.94
   5  11  -4    3.06    0.91
 -11   5  -4    1.64    2.10
 -11   5  -4    3.03    0.76
  11  -5   4    2.00    0.73
 -11   5   4    2.37    0.72
   7  11  -4   36.87    2.04
  11  -7  -4   35.53    2.09
 -11   7  -4   42.10    4.18
 -11   7  -4   38.07    2.15
   7  11  -4   34.66    2.10
 -11   7   4   38.87    2.16
   9  11  -4   34.64    2.18
  11  -9  -4   34.28    2.08
   9  11  -4   36.14    2.09
 -11   9  -4   36.80    2.21
 -11   9   4   36.19    2.15
 -11  11  -4   10.52    1.80
  11  11  -4   10.47    1.51
  11 -11  -4   11.06    1.53
  11  11  -4    9.20    1.71
 -11  11   4   10.95    1.54
 -10  12  -4    2.96    1.18
  12  10  -4    2.89    0.90
  12  10  -4    1.98    1.16
  10 -12  -4    3.36    1.01
 -10  12   4    3.10    0.97
  12   8  -4  129.50    5.98
  -8  12  -4  135.63    6.05
   8 -12  -4  137.79    6.02
  -8  12   4  128.05    6.01
  -6  12  -4   16.33    1.45
   6 -12  -4   16.35    1.51
  12   6  -4   15.84    1.42
  -6  12   4   14.37    1.53
 -12  -6   4   15.46    1.55
   4 -12  -4   13.44    1.33
  12   4  -4   13.33    1.34
  -4  12  -4   12.48    1.37
  -4  12   4   13.03    2.94
 -12  -4   4   12.45    1.31
  -4  12   4   12.99    1.38
  12   2  -4    1.76    0.68
   2 -12  -4   -0.40    1.93
  -2  12  -4    2.51    0.80
   2 -12  -4    2.38    0.73
  -2  12   4    3.09    0.78
   0 -12  -4    1.82    0.73
  12   0  -4    1.95    0.68
   0 -12  -4    1.11    1.97
   0  12  -4    1.77    0.72
  12   0   4    2.14    0.82
   0  12   4    1.46    2.18
   0  12   4    4.86    1.06
   2  12  -4    4.40    0.82
  12  -2  -4    2.55    0.65
  -2 -12  -4    1.02    2.16
  -2 -12  -4    3.99    0.73
  12  -2   4    6.29    1.28
 -12   2   4    4.23    0.79
  12  -4  -4   -0.35    0.70
 -12   4  -4   -2.60    2.09
   4  12  -4   -0.30    0.68
 -12   4  -4   -0.61    0.66
  12  -4   4    0.54    0.77
 -12   4   4    0.59    0.74
 -12   6  -4    4.54    0.93
  12  -6  -4    3.40    0.78
   6  12  -4    3.34    0.84
 -12   6   4    6.18    1.30
  12  -6   4    0.72    2.41
   8  12  -4    0.31    0.91
  12  -8  -4    0.49    0.80
   8  12  -4   -0.91    0.75
 -12   8   4    1.86    0.81
  12 -10  -4   25.65    1.88
  10  12  -4   24.83    1.94
 -12  10  -4   27.71    2.14
  10  12  -4   22.24    1.86
 -12  10   4   25.36    1.88
  12 -12  -4    4.49    1.16
  12  12  -4    2.49    0.98
  12  12  -4    5.34    1.35
 -12  12  -4    5.56    1.41
 -12  12   4    2.07    1.07
  12  12   4    4.22    1.11
  13  11  -4    0.22    0.94
  11 -13  -4    0.18    1.12
 -11  13  -4    0.44    1.31
  13  11   4    0.94    1.01
 -11  13   4    0.25    0.94
   9 -13  -4   12.09    1.60
  -9  13  -4    9.48    1.75
  13   9  -4    9.85    1.45
  13   9   4    9.75    1.74
  -9  13   4    8.29    1.46
  -7  13  -4    0.34    1.01
   7 -13  -4   -0.01    0.95
  13   7  -4    0.03    0.74
  13   7   4   -0.09    1.00
  -7  13   4    0.39    0.91
 -13  -7   4    0.27    1.00
  -5  13  -4   10.38    1.32
   5 -13  -4   11.20    1.39
  13   5  -4   11.50    1.32
  13   5   4   10.92    1.74
  -5  13   4    8.43    1.40
 -13  -5   4   10.40    1.44
  13   3  -4   17.59    1.43
  -3  13  -4   16.77    1.46
   3 -13  -4   16.38    1.47
  -3  13   4   18.09    1.52
  13   3   4   17.11    1.77
 -13  -3   4   17.74    1.49
  13   1  -4    8.00    1.24
   1 -13  -4    7.21    2.45
   1 -13  -4    8.21    1.29
  -1  13  -4    7.90    1.26
 -13  -1   4    8.88    1.26
  13   1   4    9.50    1.54
  -1 -13  -4    0.65    0.74
  13  -1  -4    1.45    0.75
  -1 -13  -4    1.56    2.18
   1  13  -4    0.66    0.80
 -13   1   4    0.72    0.78
  13  -1   4    1.49    0.89
  13  -3  -4    1.11    0.73
   3  13  -4    0.59    0.82
 -13   3   4    0.66    0.72
  13  -3   4    0.31    0.84
  13  -5  -4   -0.21    0.71
   5  13  -4    0.72    0.79
 -13   5  -4    1.81    0.85
 -13   5   4    1.48    0.87
  13  -5   4   -1.69    0.86
 -13   7  -4    1.61    1.08
  13  -7  -4    0.27    0.86
   7  13  -4    0.61    0.92
 -13   7   4    1.60    0.92
 -13   9  -4    0.70    1.25
  13  -9  -4    0.42    0.93
   9  13  -4    0.25    1.05
 -13   9   4    1.09    1.01
  11  13  -4   -1.29    0.92
  13 -11  -4    0.13    1.06
 -13  11  -4    0.63    1.37
  11  13  -4   -0.09    1.23
 -13  11   4   -0.45    0.96
  13  13  -4   -0.05    1.46
 -13  13  -4    2.79    1.55
  13  13  -4   -0.48    1.02
  13 -13  -4    1.57    1.28
 -13  13   4    1.37    0.99
  13  13   4    0.59    1.07
  12 -14  -4    2.09    1.47
  14  12  -4    0.01    1.01
 -12  14  -4    0.78    1.49
 -12  14   4   -0.49    0.97
  14  12   4    1.10    1.09
 -10  14  -4    0.50    1.30
  10 -14  -4   -0.15    1.11
  14  10  -4    0.26    0.87
  14  10   4    1.37    1.11
 -14 -10   4    2.58    1.36
 -10  14   4   -0.44    0.93
  -8  14  -4    5.45    1.24
  14   8  -4    5.04    0.96
   8 -14  -4    5.18    1.13
  14   8   4    7.07    1.22
 -14  -8   4   10.08    1.76
  -8  14   4    4.47    1.02
   6 -14  -4    1.17    0.95
  14   6  -4    1.26    0.79
  -6  14  -4   -0.09    0.94
 -14  -6   4    1.29    1.04
  -6  14   4    0.66    0.92
  14   6   4    0.51    1.04
  14   4  -4   17.96    1.52
  -4  14  -4   17.54    1.60
 -14  -4   4   18.60    1.64
  14   4   4   19.70    1.91
  -4  14   4   17.69    1.62
   2 -14  -4    9.26    1.48
  14   2  -4   12.00    1.33
  -2  14  -4   10.18    1.39
 -14  -2   4   10.84    1.44
  14   2   4   12.61    1.62
  -2  14   4   13.58    1.47
  14   0  -4    2.85    0.80
   0  14  -4    2.31    0.83
  14   0   4    3.79    0.97
   0  14   4    6.20    4.04
 -14   0   4    2.47    0.82
  14  -2  -4    3.67    0.78
   2  14  -4    4.81    0.90
  14  -2   4    4.44    0.97
 -14   2   4    3.83    0.83
  14  -4  -4    0.87    0.70
   4  14  -4    1.16    0.88
 -14   4   4    1.76    0.86
  14  -4   4   -1.24    0.93
   6  14  -4    0.39    0.91
  14  -6  -4    0.29    0.83
 -14   6  -4    2.69    1.08
 -14   6   4    0.45    0.96
 -14   8  -4    1.43    1.25
   8  14  -4    2.37    1.10
  14  -8  -4    2.24    0.97
 -14   8   4    2.08    1.02
  10  14  -4    1.91    1.23
 -14  10  -4    2.29    1.41
  14 -10  -4    1.53    1.09
 -14  10   4    0.75    1.09
  12  14  -4    0.56    1.46
  14 -12  -4   -0.54    1.21
 -14  12  -4    2.02    1.56
 -14  12   4   -0.59    1.04
  12  14   4    1.54    1.16
 -14  14  -4    4.79    1.77
  14  14  -4    0.18    1.67
 -14  14   4    1.55    1.06
  14  14   4    1.52    1.13
 -13  15  -4    1.86    1.71
  15  11  -4    2.66    1.06
 -11  15  -4    4.72    1.47
  15  11   4    2.44    1.09
 -11  15   4    3.25    1.06
   9 -15  -4   25.87    2.92
  -9  15  -4   18.30    2.05
  15   9  -4   18.41    1.76
  15   9   4   22.71    2.03
  -9  15   4   18.41    1.74
  -7  15  -4   20.13    1.86
  15   7  -4   20.36    1.75
   7 -15  -4   24.05    1.89
  -7  15   4   21.02    1.80
 -15  -7   4   26.10    2.21
  15   7   4   23.63    2.07
  -5  15  -4    3.08    0.97
   5 -15  -4    3.70    1.02
  15   5  -4    3.10    0.84
 -15  -5   4    4.64    1.13
  -5  15   4    3.28    1.04
  15   5   4    2.69    1.09
  15   3  -4    9.85    1.36
   3 -15  -4    8.50    1.52
  -3  15  -4    9.57    1.42
  -3  15   4   11.09    1.52
 -15  -3   4   10.48    1.64
  15   3   4   13.44    1.82
  15   1  -4    2.32    0.79
  -1  15  -4    3.01    0.90
   1 -15  -4    1.84    0.94
  15   1   4    3.74    1.02
 -15  -1   4    3.07    0.94
  -1  15   4    5.24    2.09
  15  -1  -4    0.84    0.79
   1  15  -4   -0.34    0.88
 -15   1   4    0.32    0.86
  15  -1   4    0.67    1.00
  15  -3  -4    0.86    0.84
   3  15  -4    0.88    0.95
 -15   3   4    1.56    0.88
  15  -3   4   -1.36    0.97
  15  -5  -4    0.76    0.83
   5  15  -4    1.08    0.91
 -15   5   4    1.66    1.01
   7  15  -4    1.33    1.07
  15  -7  -4    0.71    0.95
 -15   7  -4    3.53    1.39
 -15   7   4    1.00    0.95
  15  -9  -4    0.42    1.05
   9  15  -4    0.30    1.23
 -15   9  -4    2.28    1.45
 -15   9   4    0.07    1.05
  15 -11  -4    1.77    1.24
  11  15  -4    2.65    1.42
 -15  11  -4    6.40    1.66
 -15  11   4    0.97    1.10
  13  15  -4   -0.80    1.63
 -15  13  -4    6.05    1.77
  15 -13  -4    0.96    2.14
  13  15   4    2.32    1.25
 -15  13   4    1.75    1.08
 -15  15  -4    8.76    2.03
 -15  15   4    8.36    1.62
  16  14  -4   -0.18    1.28
 -14  16  -4    5.87    1.89
  16  14   4    0.80    1.22
 -14  16   4    2.94    1.12
 -12  16  -4   -1.22    1.61
  16  12  -4   -1.36    1.05
 -12  16   4    0.27    1.11
  16  12   4   -0.73    1.21
  16  10  -4   14.46    1.70
 -10  16  -4   16.54    2.06
  16  10   4   17.27    2.04
 -16 -10   4   22.75    2.35
 -10  16   4   16.13    1.76
  -8  16  -4    1.60    1.12
  16   8  -4    1.45    0.91
 -16  -8   4    2.46    1.52
  16   8   4    2.55    1.24
  -8  16   4    1.77    1.09
  16   6  -4    7.15    1.43
  -6  16  -4    6.18    1.13
 -16  -6   4    8.56    1.86
  16   6   4    9.09    1.81
  -6  16   4    9.90    1.62
  -4  16  -4    0.57    0.90
   4 -16  -4    0.22    1.05
  16   4  -4    0.07    0.82
  16   4   4    0.73    1.18
  -4  16   4    2.02    1.12
 -16  -4   4    1.23    1.16
   2 -16  -4   -1.14    1.01
  -2  16  -4   -0.25    0.90
  16   2  -4   -0.44    0.82
 -16  -2   4   -0.27    1.06
  -2  16   4    3.31    1.14
  16   2   4    1.03    1.10
  16   0  -4    2.01    0.87
   0  16  -4    2.59    1.01
  16   0   4    2.01    1.09
 -16   0   4    1.69    0.96
  16  -2  -4   -0.45    0.88
   2  16  -4   -0.16    0.96
  16  -2   4   -1.85    1.01
 -16   2   4   -0.09    0.97
   4  16  -4    1.52    1.06
  16  -4  -4    0.61    0.90
 -16   4   4    0.71    1.06
  16  -6  -4   -0.47    1.03
   6  16  -4    1.42    1.20
 -16   6   4   -0.62    1.08
   8  16  -4    2.11    1.31
  16  -8  -4    3.25    1.11
 -16   8   4    1.55    1.14
 -16  10  -4    5.06    1.68
  10  16  -4    1.42    1.38
  16 -10  -4    0.93    1.22
 -16  10   4   -0.51    1.14
  10  16   4    3.75    1.18
 -16  12  -4    5.07    1.82
  16 -12  -4    2.24    1.36
  12  16  -4    0.28    1.62
  12  16   4    1.62    1.25
 -16  12   4    0.34    1.11
 -16  14  -4    3.62    2.23
 -16  14   4    0.54    1.15
  14  16   4   -1.49    1.17
  17  13  -4   -0.62    1.13
 -13  17  -4    1.03    1.73
 -13  17   4    1.13    1.17
  17  13   4   -1.09    1.11
  17  11  -4    0.22    1.07
 -11  17  -4    0.16    1.52
 -17 -11   4    5.51    1.89
 -11  17   4    1.01    1.19
  17   9  -4    0.54    0.99
  -9  17  -4    1.27    1.27
  17   9   4   -0.46    1.13
  -9  17   4    0.93    1.17
 -17  -9   4    1.66    1.69
  -7  17  -4    0.70    1.09
  17   7  -4    0.06    0.91
  17   7   4    2.44    1.30
 -17  -7   4   -0.49    1.46
  -7  17   4    1.77    1.19
  -5  17  -4    8.97    1.58
  17   5  -4    7.77    1.47
  17   5   4   10.49    1.97
  -5  17   4   12.70    1.92
 -17  -5   4   10.96    1.58
  17   3  -4    0.89    0.80
  -3  17  -4    0.11    0.98
 -17  -3   4    0.98    1.20
  17   3   4    1.24    1.21
  -1  17  -4   -0.63    0.94
  17   1  -4    0.22    0.83
 -17  -1   4   -0.44    1.11
  17   1   4   -0.74    1.22
   1  17  -4   -0.57    1.07
  17  -1  -4    0.55    0.83
  17  -1   4   -2.44    1.11
 -17   1   4   -0.59    1.06
  17  -3  -4   -0.06    0.94
   3  17  -4    0.21    1.11
 -17   3   4   -1.58    1.14
   5  17  -4    0.93    1.16
  17  -5  -4   -0.14    0.94
 -17   5   4    1.26    1.20
   7  17  -4    1.82    1.29
  17  -7  -4    1.29    1.10
 -17   7   4    0.26    1.18
   9  17  -4    9.77    1.60
  17  -9  -4   11.15    1.80
 -17   9   4    8.22    1.71
  11  17  -4    3.12    1.57
  17 -11  -4    3.96    1.42
  11  17   4    4.90    1.25
 -17  11   4    3.57    2.32
 -17  13  -4    4.02    3.10
  13  17   4   -0.79    1.22
 -17  13   4    2.62    1.19
 -12  18  -4    1.89    1.50
  18  12  -4    0.40    1.11
  18  12   4   -1.52    1.06
 -12  18   4    3.62    1.29
  18  10  -4   -0.73    1.46
 -10  18  -4    0.75    1.42
  18  10   4   -0.45    1.06
 -18 -10   4    0.20    1.88
  -8  18  -4    1.47    1.27
  18   8  -4    0.26    0.99
  -8  18   4    4.62    1.37
 -18  -8   4   -0.60    1.61
  18   8   4    0.09    1.27
  18   6  -4    4.22    1.02
  -6  18  -4    4.11    1.27
 -18  -6   4    2.66    1.50
  18   6   4    4.54    1.29
  18   4  -4    7.64    1.44
  -4  18  -4    9.23    1.68
  18   4   4    7.88    1.40
 -18  -4   4    8.97    1.54
  18   2  -4    4.68    1.01
  -2  18  -4    5.55    1.15
  18   2   4    3.63    1.30
 -18  -2   4    2.75    1.33
  18   0  -4    0.19    0.86
   0  18  -4    0.01    1.08
 -18   0   4   -1.43    1.22
  18  -2  -4    4.29    0.94
   2  18  -4    6.83    1.26
 -18   2   4    3.72    1.31
  18  -4  -4    3.54    0.99
   4  18  -4    3.56    1.29
 -18   4   4    1.39    1.31
   6  18  -4    0.39    1.29
  18  -6  -4    1.58    1.11
 -18   6   4   -1.46    1.28
  18  -8  -4    1.41    1.25
   8  18  -4   -0.05    1.43
 -18   8   4   -0.58    1.32
  10  18  -4    2.43    1.54
  18 -10  -4    1.99    1.37
 -18  10   4    1.24    1.34
  12  18  -4   -1.66    1.80
 -18  12   4    2.56    1.23
  12  18   4   -0.09    1.27
  19   9  -4   -0.65    0.99
  -9  19  -4    0.30    1.27
  19   9   4   -1.71    1.21
  -9  19   4    3.11    1.43
  19   7  -4    0.72    1.00
  -7  19  -4    3.85    1.85
 -19  -7   4   -0.97    1.62
  -7  19   4    9.25    1.92
  19   5  -4   -0.51    0.86
  -5  19  -4    2.03    1.19
 -19  -5   4   -1.49    1.49
  19   5   4   -0.96    1.17
  19   3  -4    4.58    1.00
  -3  19  -4    5.41    1.24
  19   3   4    3.14    1.39
 -19  -3   4    2.64    1.45
  19   1  -4    4.90    1.02
  -1  19  -4    5.66    1.25
 -19  -1   4    2.91    1.40
  19   1   4    1.12    1.41
   1  19  -4    1.71    1.24
  19  -1  -4    1.85    0.92
 -19   1   4   -1.21    1.41
   3  19  -4    0.38    1.30
  19  -3  -4   -0.88    1.01
  19  -5  -4    0.34    1.11
   5  19  -4    1.48    1.37
   7  19  -4    2.46    1.49
  19  -7  -4    2.31    1.23
 -19   7   4    0.66    1.44
   9  19  -4   -2.12    2.33
 -19   9   4   -0.03    1.34
  -8  20  -4    0.08    1.22
  20   8  -4   -0.74    0.92
  -8  20   4    3.87    1.59
  20   6  -4   -0.66    0.99
  -6  20  -4    0.42    1.22
  -6  20   4    4.78    1.85
  20   6   4   -2.59    1.35
  20   4  -4    1.68    1.08
  -4  20  -4    1.50    1.79
  20   4   4   -0.58    2.51
  -2  20  -4    0.75    1.25
  20   2  -4   -0.19    0.93
  20   0  -4    1.99    1.02
   0  20  -4    2.20    1.29
  20  -2  -4    9.71    1.64
   2  20  -4    9.76    1.87
   4  20  -4    0.80    1.45
  20  -4  -4    0.77    1.40
   6  20  -4   -0.22    2.62
  20  -6  -4    0.51    1.27
 -20   6   4   -2.61    1.47
   8  20  -4   -0.17    1.61
  20  -8  -4   -0.41    1.31
 -20   8   4    1.74    1.48
  21   5  -4    3.42    1.02
  -5  21  -4    3.20    1.34
  -3  21  -4    1.32    1.36
  21   3  -4    0.46    0.86
  -1  21  -4    1.97    1.33
  21   1  -4    0.23    0.92
   1  21  -4    1.36    1.39
  21  -1  -4   -0.12    1.07
   3  21  -4    1.34    1.40
  21  -3  -4    0.03    1.11
   5  21  -4   -0.62    1.53
  21  -5  -4    0.51    1.24
 -21   5   4   -2.37    1.54
   0  -1  -5   -0.05    0.54
   0   1  -5    0.80    0.57
   0   1  -5    0.48    0.53
  -1   0  -5    0.42    0.56
   1   0  -5    0.46    0.63
   1   0  -5    0.18    0.47
  -1   0  -5    0.16    0.48
  -1   0   5    1.31    1.47
   0   1   5    1.62    1.27
   1   0   5    1.32    1.34
   1   0   5   -1.53    1.27
   0  -1   5   -0.47    1.28
   0  -1   5    0.09    1.27
  -1   2  -5   34.02    1.76
  -2  -1  -5   34.19    1.77
   1  -2  -5   33.47    3.18
   1  -2  -5   32.31    1.73
   2   1  -5   33.24    1.83
  -1   2  -5   33.66    1.72
  -2  -1  -5   34.23    1.76
   2   1  -5   34.24    1.75
   1  -2   5   32.63    2.92
  -2  -1   5   31.83    3.22
   2   1   5   31.05    2.92
  -1   2   5   33.11    1.73
   1  -2   5   38.04    3.06
  -1   2   5   35.22    3.09
   2   1   5   34.33    2.94
   2  -1  -5   47.02    2.22
  -2   1  -5   47.43    2.20
   1   2  -5   45.83    2.24
   2  -1  -5   43.18    3.57
  -1  -2  -5   47.03    2.21
   1   2  -5   47.71    2.19
  -2   1  -5   48.03    2.18
  -2   1   5   46.92    2.23
  -1  -2   5   46.67    3.59
   1   2   5   40.96    3.32
  -2   1   5   46.71    3.58
   2  -1   5   43.92    3.35
   2  -1   5   42.39    3.41
  -1  -2   5   45.49    3.57
   1   2   5   38.78    2.16
   2  -3  -5    6.21    1.74
  -2   3  -5    6.20    0.80
   3   2  -5    6.35    0.84
  -3  -2  -5    6.10    0.95
   2  -3  -5    5.42    0.86
  -2   3  -5    6.24    0.88
   3   2  -5    6.31    1.05
  -3  -2   5    4.61    1.82
   3   2   5    6.43    1.58
   3   2   5    7.84    2.07
  -2   3   5    9.35    2.41
   2  -3   5    7.62    1.77
   2  -3   5    3.52    1.68
  -2   3   5    5.85    0.85
   3   0  -5  112.27    6.47
   0  -3  -5  121.99    6.48
  -3   0  -5  122.15    5.40
   0   3  -5  121.85    5.39
  -3   0  -5  125.65    5.41
   3   0  -5  120.04    5.41
   0  -3  -5  124.25    5.42
   0   3  -5  126.88    5.44
   0  -3   5  124.78    6.60
   0  -3   5  116.22    6.48
   3   0   5  120.65    6.42
   0   3   5  126.48    6.60
  -3   0   5  115.54    6.56
   3   0   5  123.21    6.43
   0   3   5  127.12    5.40
   3  -2  -5    6.10    1.75
   2   3  -5    5.03    0.82
   3  -2  -5    4.35    0.62
  -3   2  -5    4.55    0.80
  -3   2  -5    4.66    0.83
  -2  -3  -5    3.54    0.61
   2   3  -5    4.83    0.95
  -3   2   5    6.03    1.79
   2   3   5    1.95    1.53
   2   3   5    4.49    0.56
  -2  -3   5    4.97    1.69
   3  -2   5    6.92    1.64
   3  -2   5    5.50    1.75
  -2  -3   5    3.38    1.58
  -3   2   5    4.56    0.84
  -4  -3  -5   57.78    2.65
  -3   4  -5   55.73    2.62
   4   3  -5   57.48    2.62
   3  -4  -5   54.48    2.63
  -3   4  -5   56.57    2.58
   3  -4  -5   52.36    3.85
   4   3  -5   56.89    2.70
   3  -4   5   49.46    3.95
   4   3   5   58.92    3.56
   3  -4   5   50.13    3.79
  -4  -3   5   52.43    4.12
  -4  -3   5   51.91    4.01
   4   3   5   57.35    3.63
   4   3   5   58.26    2.58
  -3   4   5   56.36    2.63
  -3   4   5   54.47    3.96
  -4  -1  -5    0.73    0.57
  -1   4  -5    0.54    0.46
   1  -4  -5   -1.84    1.58
  -4  -1  -5    0.57    0.53
   4   1  -5    0.75    0.54
  -1   4  -5    0.65    0.54
   4   1  -5    1.80    1.48
   1  -4  -5    0.52    0.61
   4   1   5    0.28    1.33
  -1   4   5    0.81    0.51
   1  -4   5    1.43    1.54
   1  -4   5   -0.12    1.46
  -4  -1   5   -2.59    1.49
  -1   4   5    3.14    1.57
   4   1   5    0.36    1.25
  -1  -4  -5    1.16    1.40
  -4   1  -5    1.04    0.51
   4  -1  -5    0.70    0.56
   4  -1  -5   -1.00    1.41
  -1  -4  -5    0.50    0.56
   1   4  -5    0.92    0.60
  -4   1  -5    0.58    0.50
   1   4  -5    0.92    0.47
   4  -1   5    1.53    1.37
   4  -1   5    3.43    1.35
   1   4   5    1.41    1.38
  -4   1   5    1.03    1.43
  -4   1   5    0.36    0.56
  -1  -4   5    0.81    1.57
  -1  -4   5    1.80    1.51
  -3  -4  -5    0.04    0.57
   4  -3  -5    0.61    1.42
   3   4  -5   -0.05    0.62
  -4   3  -5    0.02    0.48
   3   4  -5   -0.03    0.49
   4  -3  -5    0.21    0.52
  -4   3  -5    0.28    0.49
  -4   3   5   -2.05    1.59
   4  -3   5   -0.45    1.35
  -3  -4   5    1.46    1.51
  -3  -4   5   -0.86    1.56
   4  -3   5    1.35    1.25
  -4   3   5    0.16    0.55
   4  -5  -5   20.76    2.84
  -5  -4  -5   22.68    1.38
  -4   5  -5   19.60    1.21
  -4   5  -5   21.45    1.33
   4  -5  -5   21.78    1.37
   5   4  -5   22.35    1.49
   5   4  -5   22.95    1.32
   5   4   5   22.97    2.13
   4  -5   5   23.72    2.95
  -5  -4   5   16.24    2.93
  -5  -4   5   17.00    2.94
   4  -5   5   20.91    2.59
  -4   5   5   22.13    1.35
  -4   5   5   19.18    3.06
   5   2  -5    3.02    0.58
   2  -5  -5    1.90    0.53
  -2   5  -5    2.64    0.62
  -5  -2  -5    2.31    0.57
   2  -5  -5    2.77    1.58
   5   2  -5    1.75    1.64
  -2   5  -5    2.83    0.49
   5   2  -5    3.57    0.79
  -5  -2   5    3.14    1.74
   5   2   5    4.14    1.34
   2  -5   5    2.19    1.81
  -2   5   5    3.07    0.61
  -2   5   5    2.98    1.75
   5   2   5    4.46    1.45
   2  -5   5    1.36    1.52
  -5   0  -5   -0.07    0.54
   5   0  -5   -0.05    0.50
   0  -5  -5   -1.41    1.44
   5   0  -5    1.83    1.46
   0  -5  -5    0.24    0.53
  -5   0  -5    0.09    0.48
   0   5  -5    0.03    0.56
   0   5  -5    0.12    0.43
   0  -5   5    0.48    1.38
   0   5   5    1.38    0.49
  -5   0   5    0.01    1.51
  -5   0   5   -0.14    0.59
   0  -5   5    2.53    1.50
   0   5   5    1.79    1.58
   5   0   5   -1.53    1.33
   5   0   5    1.73    1.31
   5  -2  -5    4.13    1.79
   2   5  -5    4.30    0.80
  -2  -5  -5    4.91    0.70
   5  -2  -5    4.87    0.69
  -2  -5  -5    3.31    1.63
   2   5  -5    4.71    0.72
  -5   2  -5    4.45    0.83
  -5   2  -5    4.63    0.77
   5  -2   5    4.88    2.06
  -5   2   5    4.06    0.87
  -2  -5   5    5.83    1.67
  -2  -5   5    4.05    1.73
  -5   2   5    6.10    1.93
   2   5   5    5.40    1.71
   5  -2   5    5.95    1.61
   4   5  -5    3.17    0.73
   5  -4  -5    3.97    0.69
   4   5  -5    4.27    0.83
   5  -4  -5    3.14    1.90
  -4  -5  -5    3.63    0.63
  -5   4  -5    3.70    0.60
  -4  -5   5    3.48    1.47
  -4  -5   5    1.99    1.74
   4   5   5    3.11    0.49
  -5   4   5    1.98    1.78
   4   5   5    3.30    1.35
   4   5   5    5.98    1.57
   5  -4   5    0.23    1.78
  -5   4   5    4.54    0.91
   5  -6  -5    2.44    1.85
   6   5  -5    3.12    0.61
   6   5  -5    3.18    0.75
  -5   6  -5    3.04    0.65
   5  -6  -5    2.67    0.65
  -5   6   5    2.32    1.93
  -5   6   5    2.54    0.67
  -6  -5   5    2.92    1.65
   5  -6   5    6.48    1.93
  -6  -5   5    6.29    2.13
  -3   6  -5    5.57    0.96
   3  -6  -5    8.49    1.97
   6   3  -5    6.35    0.92
   3  -6  -5    6.08    0.95
   6   3  -5    6.18    1.14
  -3   6  -5    4.69    0.71
  -6  -3   5    4.34    1.82
  -3   6   5    5.55    2.07
   6   3   5    6.82    1.42
   3  -6   5    6.77    1.67
  -3   6   5    5.78    0.99
   3  -6   5    5.24    1.78
   6   1  -5   10.61    2.22
  -1   6  -5   11.49    1.11
  -6  -1  -5   10.52    0.88
   1  -6  -5   11.59    1.10
   6   1  -5   11.56    1.06
   1  -6  -5   10.95    2.23
  -1   6  -5   11.07    0.88
  -6  -1   5    9.94    1.14
   6   1   5   15.75    2.12
   6   1   5    8.39    2.17
   1  -6   5   11.11    2.14
  -1   6   5   12.12    1.03
  -6  -1   5   11.30    2.67
  -1   6   5   10.30    2.18
   1  -6   5   11.42    2.11
   1   6  -5   55.24    2.66
   6  -1  -5   56.30    2.64
   6  -1  -5   49.49    3.88
  -6   1  -5   55.57    2.57
  -1  -6  -5   57.89    3.99
  -1  -6  -5   57.05    2.66
   1   6  -5   56.39    2.57
   6  -1   5   49.87    3.80
  -1  -6   5   54.21    4.08
   6  -1   5   59.86    3.78
  -6   1   5   48.99    4.11
  -1  -6   5   51.79    3.97
   1   6   5   60.54    4.08
  -6   1   5   55.32    2.63
   1   6   5   57.19    2.60
  -6   3  -5    0.12    0.49
   3   6  -5   -0.09    0.48
  -3  -6  -5    0.90    0.65
  -3  -6  -5   -0.27    1.34
   6  -3  -5    0.15    0.55
   6  -3  -5    1.88    1.54
   3   6  -5   -0.38    0.62
  -6   3   5    0.06    0.58
   6  -3   5    1.90    1.51
   6  -3   5    2.47    1.47
  -3  -6   5   -1.16    1.65
   3   6   5    0.59    1.59
  -6   3   5   -0.62    1.48
  -3  -6   5    2.75    1.68
  -6   5  -5    0.37    0.56
  -5  -6  -5    0.72    0.62
   5   6  -5    0.46    0.53
   5   6  -5    0.68    0.65
   6  -5  -5    0.69    1.60
   6  -5  -5   -0.08    0.61
  -6   5   5   -0.14    1.74
   6  -5   5    0.69    1.89
  -6   5   5    0.76    0.62
   5   6   5    1.69    1.05
  -5  -6   5   -2.82    1.54
  -5  -6   5   -1.16    1.81
   5   6   5    1.90    1.05
   6  -7  -5   46.32    4.52
  -6   7  -5   61.95    2.87
   7   6  -5   63.21    2.87
   6  -7  -5   64.77    2.88
  -6   7  -5   47.48    4.33
   7   6  -5   61.24    2.94
  -6   7   5   61.83    2.89
   6  -7   5   61.47    4.65
  -4   7  -5    5.14    1.01
   7   4  -5    5.17    1.00
   4  -7  -5    1.54    1.81
   4  -7  -5    5.16    0.93
   7   4  -5    5.73    1.22
  -4   7   5    2.00    2.19
  -7  -4   5    4.31    1.99
  -4   7   5    4.81    1.01
  -7  -4   5    5.80    2.11
   4  -7   5    5.72    1.96
  -2   7  -5    0.69    0.64
   2  -7  -5    0.72    0.63
   2  -7  -5    3.24    1.76
   7   2  -5    1.32    1.65
  -2   7  -5    0.83    0.41
   7   2  -5    0.53    0.56
  -2   7   5    0.68    0.62
  -7  -2   5    0.65    1.72
   7   2   5    0.51    1.26
   2  -7   5    2.59    1.63
  -2   7   5   -2.43    2.05
   2  -7   5   -0.90    1.76
   0  -7  -5   12.28    1.13
  -7   0  -5   10.34    1.06
   7   0  -5   12.24    1.09
   0   7  -5   12.25    1.06
   0  -7  -5   13.08    2.28
   7   0  -5   12.77    2.58
   0   7  -5   12.55    0.87
  -7   0   5   11.66    1.03
   0   7   5   12.00    1.07
   0   7   5   13.43    2.99
   0  -7   5   11.43    2.52
   7   0   5   13.17    2.30
   0  -7   5   11.73    2.76
  -7   0   5    9.00    2.10
   7  -2  -5    2.36    1.53
   2   7  -5    2.46    0.50
  -2  -7  -5    3.32    0.72
  -7   2  -5    2.83    0.51
   2   7  -5    2.47    0.71
  -2  -7  -5   -0.73    1.59
   7  -2  -5    2.55    0.64
  -7   2   5    1.83    0.56
   7  -2   5    2.64    1.73
  -2  -7   5    0.83    1.43
   7  -2   5    3.80    1.64
  -7   2   5    0.11    1.97
  -2  -7   5    4.58    1.82
  -7   4  -5    1.41    0.56
   7  -4  -5   -0.33    1.60
   4   7  -5    1.35    0.71
   4   7  -5    1.65    0.54
   7  -4  -5    0.92    0.65
  -4  -7  -5    1.11    0.62
  -4  -7   5    2.03    1.62
  -4  -7   5   -0.96    1.66
   7  -4   5    2.54    1.75
  -7   4   5    0.70    1.71
  -7   4   5    1.41    0.64
   4   7   5    3.14    1.42
   7  -6  -5   21.72    1.43
  -7   6  -5   20.91    1.36
   6   7  -5   20.38    1.34
   6   7  -5   19.50    1.49
  -7   6  -5   18.12    3.10
   7  -6  -5   17.20    3.52
  -7   6   5   20.53    1.41
  -7   6   5   20.45    3.32
   7  -6   5   16.16    3.41
   7  -8  -5   35.38    1.99
   8   7  -5   35.22    2.06
   8   7  -5   36.69    1.98
  -7   8  -5   35.90    2.04
   7  -8   5   37.92    4.23
  -7   8   5   36.07    2.07
  -5   8  -5    1.44    1.89
   8   5  -5    1.41    0.62
  -5   8  -5    1.67    0.68
   5  -8  -5    1.34    1.76
   5  -8  -5    1.52    0.67
   8   5  -5    1.65    0.98
  -5   8   5    1.26    0.75
   5  -8   5    3.44    2.22
  -5   8   5    1.27    2.36
   3  -8  -5   -0.15    0.66
   8   3  -5    0.06    0.61
  -3   8  -5    0.34    0.63
   8   3  -5    1.66    1.66
   3  -8  -5    0.05    1.86
  -3   8   5   -0.32    0.69
  -3   8   5    0.19    2.06
  -8  -3   5    2.30    1.87
   1  -8  -5    7.29    1.03
  -1   8  -5    6.31    1.09
   8   1  -5    7.65    1.94
   1  -8  -5    8.09    2.15
   8   1  -5    5.58    1.05
  -8  -1   5    5.74    1.02
  -1   8   5    2.93    2.25
  -1   8   5    5.84    0.79
   1  -8   5    6.31    1.92
  -8  -1   5    6.80    2.05
   1  -8   5    4.25    1.92
   8   1   5    8.01    1.64
   8  -1  -5   -2.97    1.64
  -8   1  -5    1.03    0.44
  -1  -8  -5    0.78    0.59
  -1  -8  -5   -0.43    1.68
   1   8  -5    0.80    0.65
   1   8  -5    1.13    0.44
   8  -1  -5    1.00    0.57
  -8   1   5    0.86    0.57
  -8   1   5    2.91    1.89
   1   8   5    0.97    1.85
   8  -1   5    4.26    1.52
  -1  -8   5    1.27    1.68
   1   8   5   -0.73    0.58
  -1  -8   5    0.31    1.55
   8  -1   5    2.64    1.46
   3   8  -5    6.54    0.83
   8  -3  -5    3.40    1.86
  -8   3  -5    6.96    0.88
  -3  -8  -5    6.35    1.08
  -3  -8  -5    8.57    2.53
   8  -3  -5    5.34    0.99
   3   8  -5    6.57    1.05
  -8   3   5    6.04    1.97
  -3  -8   5    5.81    2.03
   3   8   5    8.37    0.82
  -8   3   5    5.70    1.03
   3   8   5    4.92    1.83
  -3  -8   5    2.54    1.61
   8  -3   5    5.19    1.94
   8  -5  -5    4.50    0.77
  -8   5  -5    4.40    0.95
   5   8  -5    5.33    0.91
  -8   5  -5    5.30    1.85
   5   8  -5    5.40    1.19
  -8   5   5    3.54    0.71
   8  -5   5    6.87    2.18
   7   8  -5    2.43    0.66
   7   8  -5    2.74    0.79
  -8   7  -5    4.22    2.02
   8  -7  -5    3.55    0.78
  -8   7  -5    3.73    0.79
  -8   7   5    3.78    0.84
   9   8  -5   -0.48    0.89
   8  -9  -5   -0.07    0.74
   9   8  -5    0.13    0.73
  -8   9  -5    0.23    0.87
  -8   9   5    1.38    0.87
  -6   9  -5   66.69    3.13
   9   6  -5   62.09    3.18
   9   6  -5   61.80    3.04
   6  -9  -5   61.99    3.04
   4  -9  -5    3.86    2.05
  -4   9  -5    6.59    1.12
   9   4  -5    5.50    1.05
   4  -9  -5    6.00    1.17
  -4   9   5    5.31    0.85
   9   2  -5    1.83    0.69
   2  -9  -5    2.05    0.70
  -2   9  -5    1.23    0.70
   2  -9  -5    1.42    1.86
   2  -9   5    3.01    2.47
  -2   9   5    0.49    0.67
  -9  -2   5    1.41    0.71
  -2   9   5    0.88    2.18
   9   0  -5    5.39    0.76
   0   9  -5    5.13    0.80
   0  -9  -5    2.85    2.02
   0  -9  -5    5.30    1.07
  -9   0   5    4.43    0.96
   9   0   5    8.97    2.19
   0   9   5    2.47    2.05
   0   9   5    4.57    0.77
  -9   2  -5    3.74    0.76
  -2  -9  -5    2.60    2.00
   2   9  -5    2.97    0.70
  -2  -9  -5    3.37    0.69
   9  -2  -5    2.33    0.65
   9  -2   5    3.10    1.76
   9  -2   5    1.64    1.78
   2   9   5    5.82    1.99
  -9   2   5    3.64    0.66
   9  -4  -5   11.99    1.29
   4   9  -5   11.27    1.25
   4   9  -5   11.82    1.03
  -9   4  -5   11.99    1.08
   9  -4   5   18.51    3.09
  -9   4   5   12.53    1.30
   6   9  -5    1.01    0.60
  -9   6  -5    1.66    0.74
   9  -6  -5    0.78    0.67
  -9   6  -5   -2.28    1.79
   6   9  -5    1.08    0.77
  -9   6   5    1.33    0.74
   9  -6   5    5.98    2.26
   8   9  -5    7.33    1.30
   8   9  -5    6.23    1.22
  -9   8  -5    6.39    1.40
  -9   8   5    8.14    1.38
  -9  10  -5   18.79    1.79
  10   9  -5   19.76    1.77
   9 -10  -5   19.41    1.66
  10   9  -5   19.40    1.62
  -9  10   5   19.10    1.65
  -7  10  -5   97.07    4.49
  10   7  -5   95.75    4.56
   7 -10  -5   96.61    4.45
  10   7  -5   99.14    4.45
  -7  10   5   94.16    4.47
  -5  10  -5    0.80    0.75
   5 -10  -5   -0.30    0.75
  10   5  -5    0.67    0.69
  -5  10   5   -0.49    0.89
   3 -10  -5    3.43    2.17
  -3  10  -5    2.48    0.71
  10   3  -5    2.29    0.68
   3 -10  -5    2.63    0.93
  -3  10   5    0.96    2.35
  -3  10   5    1.45    0.78
 -10  -3   5    1.41    0.75
  -1  10  -5    2.05    0.77
   1 -10  -5    2.45    2.01
   1 -10  -5    1.28    0.69
  10   1  -5    1.32    0.64
  -1  10   5    4.23    2.24
 -10  -1   5    1.13    0.66
  -1  10   5    1.08    0.78
  10  -1  -5   -0.08    0.67
  -1 -10  -5    0.15    0.88
  -1 -10  -5   -0.73    2.05
   1  10  -5   -0.04    0.73
   1  10   5    4.53    2.12
 -10   1   5   -0.27    0.67
  10  -3  -5    1.74    0.63
  -3 -10  -5    1.30    0.64
   3  10  -5    2.35    0.75
  10  -3   5   -2.24    2.02
 -10   3   5    2.60    0.74
  10  -5  -5    2.51    0.75
 -10   5  -5   -1.84    2.05
   5  10  -5    2.30    0.76
   5  10  -5    3.08    0.81
 -10   5  -5    3.05    0.75
 -10   5   5    2.56    0.72
  10  -5   5    6.57    2.24
   7  10  -5    1.68    0.86
  10  -7  -5    1.86    0.80
   7  10  -5    0.88    0.72
 -10   7  -5    1.92    0.92
 -10   7   5    1.88    0.80
  10  -7   5    5.34    2.46
 -10   9  -5    1.85    1.04
   9  10  -5    1.09    0.97
  10  -9  -5    0.80    0.78
 -10   9   5    2.03    0.90
  11  10  -5   17.96    1.70
  10 -11  -5   19.16    1.75
 -10  11  -5   20.22    1.89
  11  10  -5   17.00    1.95
 -10  11   5   17.59    1.67
  -8  11  -5    2.26    1.01
  11   8  -5    2.75    0.86
   8 -11  -5    3.08    0.88
  -8  11   5    2.38    0.95
  -6  11  -5  128.36    5.92
   6 -11  -5  133.51    5.90
  11   6  -5  133.73    5.89
  -6  11   5  127.81    5.92
   4 -11  -5   45.85    2.42
  -4  11  -5   46.79    2.44
  11   4  -5   47.10    2.39
 -11  -4   5   45.73    2.45
  -4  11   5   43.98    2.55
  11   2  -5    0.88    0.71
   2 -11  -5    0.80    0.71
  -2  11  -5    1.49    0.78
  -2  11   5    1.29    0.85
 -11  -2   5    1.03    0.64
  -2  11   5   -2.91    2.48
   0  11  -5    0.70    0.77
   0 -11  -5    4.68    2.35
  11   0  -5   -0.51    0.65
   0 -11  -5    0.00    0.69
   0  11   5    0.68    0.73
 -11   0   5    0.09    0.70
   0  11   5    1.35    2.34
   2  11  -5    3.36    0.79
  -2 -11  -5    3.62    0.77
  11  -2  -5    3.63    0.79
 -11   2   5    3.06    0.71
  11  -4  -5   -0.22    0.70
   4  11  -5    0.29    0.74
 -11   4   5    0.81    0.71
  11  -4   5    1.79    0.75
  11  -6  -5    1.11    0.77
   6  11  -5    1.60    0.84
 -11   6  -5    2.40    0.87
 -11   6   5    1.41    0.81
  11  -8  -5    3.75    0.91
   8  11  -5    2.69    0.83
   8  11  -5    4.31    0.99
 -11   8  -5    5.02    1.10
 -11   8   5    3.49    0.96
  10  11  -5    9.84    1.66
 -11  10  -5   10.07    1.38
  11 -10  -5   10.07    1.47
  10  11  -5    9.53    1.49
 -11  10   5    8.93    1.50
  12  11  -5   -0.32    1.33
  12  11  -5    0.07    0.98
 -11  12  -5    1.83    1.34
  11 -12  -5    1.03    1.10
 -11  12   5    0.91    1.05
  -9  12  -5    4.41    1.27
   9 -12  -5    3.42    1.07
  12   9  -5    4.14    0.98
  -9  12   5    2.10    0.96
  -7  12  -5    0.25    0.94
  12   7  -5    0.70    0.83
   7 -12  -5    0.87    0.93
  -7  12   5    0.28    0.95
 -12  -7   5    0.67    0.97
  12   5  -5    3.33    0.76
  -5  12  -5    4.62    0.92
   5 -12  -5    3.11    0.91
  -5  12   5    5.05    1.02
 -12  -5   5    3.83    0.92
  12   3  -5   19.29    1.46
  -3  12  -5   17.90    1.52
   3 -12  -5   18.17    1.50
  -3  12   5   18.11    1.66
 -12  -3   5   17.14    1.48
  -1  12   5    3.70    0.89
 -12  -1   5    1.90    0.78
   1  12  -5   -0.44    0.79
  -1 -12  -5   -0.41    0.73
  12  -1  -5    0.16    0.70
 -12   1   5    0.37    0.70
  12  -3  -5   -0.26    0.74
   3  12  -5   -0.14    0.77
 -12   3   5    0.50    0.72
  12  -3   5    1.27    0.83
  12  -5  -5    0.67    0.77
   5  12  -5    0.73    0.82
  12  -5   5    0.99    0.85
 -12   5   5    0.29    0.74
   7  12  -5    0.72    0.94
  12  -7  -5    0.89    0.87
 -12   7  -5    2.17    1.54
 -12   7   5    1.11    0.92
  12  -9  -5    0.12    0.86
 -12   9  -5    1.63    1.23
   9  12  -5    0.36    1.05
 -12   9   5    0.95    0.90
 -12  11  -5    1.55    1.36
  11  12  -5   -0.55    1.28
  12 -11  -5    1.74    1.07
  11  12  -5    1.06    0.98
 -12  11   5    0.47    1.00
  12 -13  -5    1.25    1.28
  13  12  -5    0.86    1.04
 -12  13  -5    0.47    1.54
 -12  13   5   -1.34    1.02
  13  12   5    1.04    1.07
  13  10  -5    1.02    0.99
  10 -13  -5    1.73    1.11
 -10  13  -5    2.97    1.36
 -10  13   5    1.60    1.00
  -8  13  -5   11.18    1.74
  13   8  -5   11.14    1.49
   8 -13  -5   10.65    1.71
  -8  13   5    8.20    1.52
 -13  -8   5   12.06    1.80
  13   6  -5    0.50    0.79
  -6  13  -5    0.53    0.97
   6 -13  -5    0.73    0.91
 -13  -6   5   -0.19    0.96
  -6  13   5    0.00    0.94
   4 -13  -5    0.53    0.89
  13   4  -5   -0.03    0.71
  -4  13  -5    0.28    0.80
  -4  13   5   -0.36    0.91
 -13  -4   5    0.30    0.84
   2 -13  -5    3.19    0.89
  -2  13  -5    2.46    0.87
  13   2  -5    3.11    0.74
  -2  13   5    3.32    1.05
 -13  -2   5    3.44    0.91
  13   0  -5    0.67    0.73
   0  13  -5    0.60    0.84
   0 -13  -5    0.25    0.82
 -13   0   5    0.35    0.81
  13   0   5    2.81    1.02
  13  -2  -5    0.48    0.77
   2  13  -5    0.52    0.86
  13  -2   5    0.83    0.91
 -13   2   5    1.22    0.82
  13  -4  -5   13.89    1.38
   4  13  -5   12.71    1.43
 -13   4   5   14.42    1.46
  13  -6  -5    1.02    0.78
   6  13  -5    0.97    0.93
 -13   6   5    1.75    0.93
 -13   8  -5    5.66    1.27
   8  13  -5    3.34    1.10
  13  -8  -5    2.60    0.92
 -13   8   5    2.86    0.92
  13 -10  -5    8.52    1.64
  10  13  -5    7.86    1.39
 -13  10  -5   10.37    1.77
 -13  10   5    4.96    1.13
  13 -12  -5   10.01    1.88
 -13  12  -5   12.46    1.92
  12  13  -5    9.38    1.62
 -13  12   5    8.46    1.58
 -13  14  -5    4.30    1.75
  14  13  -5    3.61    1.69
  13 -14  -5    4.08    1.39
 -13  14   5    2.65    1.14
  14  13   5    3.53    1.22
  11 -14  -5    3.15    1.31
 -11  14  -5    3.31    1.51
  14  11  -5    1.98    1.07
  14  11   5    2.75    1.05
 -11  14   5    2.06    1.00
  -9  14  -5    0.73    1.31
  14   9  -5   -0.57    0.98
   9 -14  -5    0.76    1.18
 -14  -9   5    2.71    1.37
  14   9   5    1.37    1.13
  -9  14   5    0.62    0.95
   7 -14  -5   22.25    1.93
  14   7  -5   23.70    1.84
  -7  14  -5   22.27    1.95
  -7  14   5   21.27    1.82
  14   7   5   24.95    2.16
 -14  -7   5   24.02    2.08
   5 -14  -5   18.42    1.74
  -5  14  -5   18.53    1.72
  14   5  -5   18.19    1.65
  14   5   5   20.55    1.98
  -5  14   5   18.00    1.67
 -14  -5   5   17.01    1.80
  14   3  -5   12.72    1.42
  -3  14  -5   12.94    1.51
   3 -14  -5   14.59    1.57
  -3  14   5   16.34    1.57
 -14  -3   5   13.36    1.61
  14   3   5   16.67    1.88
   1 -14  -5    0.63    0.90
  14   1  -5    1.30    0.81
  -1  14  -5    1.08    0.85
  14   1   5    2.22    1.01
 -14  -1   5    1.16    0.84
   1  14  -5    1.34    0.93
  -1 -14  -5    1.29    0.87
  14  -1  -5    1.30    0.76
  14  -1   5    1.75    0.99
 -14   1   5    1.22    0.90
  14  -3  -5    1.18    0.78
   3  14  -5    2.33    0.90
 -14   3   5    1.63    0.85
  14  -3   5    2.07    1.00
  14  -5  -5    0.36    0.80
   5  14  -5    1.18    0.95
 -14   5   5    1.13    0.88
  14  -5   5   -2.17    1.01
  14  -7  -5    6.95    1.10
   7  14  -5    7.27    1.22
 -14   7   5    7.23    1.57
   9  14  -5   -0.05    1.20
  14  -9  -5   -0.10    1.02
 -14   9  -5    3.10    1.39
 -14   9   5    0.61    1.05
  14 -11  -5    1.13    1.19
 -14  11  -5    2.40    1.57
  11  14  -5    0.20    1.46
 -14  11   5    1.20    1.12
 -14  13  -5    6.64    1.81
  14 -13  -5    4.73    1.40
 -14  13   5    3.25    1.29
  13  14   5    5.14    1.17
 -14  15  -5    4.93    1.84
  15  14   5    2.39    1.12
 -14  15   5    2.07    1.11
 -12  15  -5    1.09    1.61
 -12  15   5    0.56    1.16
  10 -15  -5    9.94    1.99
  15  10  -5    4.14    1.16
 -10  15  -5    5.99    1.52
  15  10   5    5.91    1.24
 -15 -10   5    9.67    1.91
 -10  15   5    4.13    1.10
  15   8  -5    0.25    0.93
  -8  15  -5   -0.74    1.22
   8 -15  -5    1.11    1.15
  -8  15   5    1.20    1.00
 -15  -8   5    1.79    1.45
  15   8   5    2.43    1.24
  15   6  -5    1.59    0.94
   6 -15  -5    1.75    1.06
  -6  15  -5    2.70    1.17
  15   6   5    1.61    1.19
 -15  -6   5    3.02    1.26
  -6  15   5    3.16    1.05
   4 -15  -5    0.96    1.01
  -4  15  -5    0.39    1.01
  15   4  -5    0.57    0.85
  15   4   5    1.91    1.10
  -4  15   5    3.31    1.07
 -15  -4   5    1.39    1.16
   2 -15  -5   -0.82    1.00
  15   2  -5   -1.09    0.71
  -2  15  -5    0.23    0.88
  15   2   5    1.35    1.17
 -15  -2   5    0.43    1.00
   0  15  -5    1.05    0.93
   0 -15  -5   -0.86    0.96
  15   0  -5    0.74    0.81
  15   0   5    1.60    1.07
 -15   0   5    0.60    0.97
   2  15  -5   -0.29    1.11
  15  -2  -5    0.44    0.87
 -15   2   5    0.73    0.96
  15  -2   5    0.89    1.05
  15  -4  -5    0.28    0.86
   4  15  -5    0.88    0.99
 -15   4   5    1.01    0.97
  15  -6  -5    0.43    0.98
   6  15  -5    0.89    1.09
 -15   6   5   -0.71    1.04
  15  -8  -5    0.66    1.09
   8  15  -5   -0.71    1.23
 -15   8   5   -0.82    1.06
 -15  10  -5    3.93    1.76
  15 -10  -5    0.48    1.15
  10  15  -5    0.23    1.36
 -15  10   5   -0.95    1.10
 -15  12  -5    6.96    1.82
  15 -12  -5    4.44    1.36
  12  15  -5    0.38    1.70
  12  15   5    8.97    1.77
 -15  14  -5    4.12    1.89
 -15  14   5    1.26    1.12
  14  15   5    2.16    1.21
 -13  16  -5    0.96    1.77
  16  13  -5   -0.71    1.16
  16  13   5    0.26    1.25
 -13  16   5    2.95    1.12
 -11  16  -5    3.64    1.90
  16  11  -5   -0.10    1.10
  16  11   5    1.21    1.10
 -11  16   5    1.68    1.49
  16   9  -5    0.02    1.02
  -9  16  -5    0.72    1.39
  -9  16   5    1.55    1.07
 -16  -9   5    3.57    1.67
  16   9   5    1.29    1.09
  -7  16  -5    1.45    1.21
   7 -16  -5    1.23    1.19
  16   7  -5    0.62    0.93
 -16  -7   5    1.02    1.47
  -7  16   5    3.48    1.15
  16   7   5    1.91    1.30
  -5  16  -5    0.67    1.11
   5 -16  -5   -0.59    1.13
  16   5  -5    0.34    0.90
 -16  -5   5    0.84    1.36
  16   5   5    1.22    1.17
  16   3  -5    1.97    0.80
   3 -16  -5    1.82    1.14
  -3  16  -5    3.60    1.11
 -16  -3   5    4.61    1.24
  16   3   5    2.56    1.17
   1 -16  -5    1.94    1.11
  -1  16  -5    2.98    1.06
  16   1  -5    2.15    0.78
 -16  -1   5    4.05    1.17
  16   1   5    3.09    1.18
   1  16  -5    2.95    1.07
  16  -1  -5    2.45    0.84
  16  -1   5    1.74    1.15
 -16   1   5    2.70    1.03
   3  16  -5    1.98    1.05
  16  -3  -5    1.42    0.82
 -16   3   5    2.17    1.03
   5  16  -5    0.44    1.11
  16  -5  -5    0.37    0.89
 -16   5   5   -1.29    1.11
   7  16  -5    2.96    1.28
  16  -7  -5    3.10    1.12
 -16   7   5    2.22    1.15
  16  -9  -5    0.06    1.18
   9  16  -5    0.66    1.36
 -16   9   5   -1.64    1.12
  11  16  -5   -0.72    1.56
  16 -11  -5    0.13    1.29
 -16  11   5    1.92    1.22
  16 -13  -5    2.67    1.52
 -16  13  -5    5.14    2.06
  13  16  -5   -1.14    1.75
  13  16   5    2.52    1.19
 -16  13   5    1.57    1.13
 -12  17  -5    0.12    1.69
  17  12  -5    0.16    1.14
  17  12   5   -0.44    1.18
 -17 -12   5    6.38    2.03
 -12  17   5    3.12    1.20
  17  10  -5    0.29    1.41
 -10  17  -5    2.19    1.64
 -10  17   5    4.42    1.54
  17  10   5    2.03    1.20
 -17 -10   5    2.20    1.91
  -8  17  -5    4.33    1.37
  17   8  -5    2.43    1.07
 -17  -8   5    6.53    1.80
  17   8   5    4.55    1.26
  -6  17  -5    9.11    1.80
  17   6  -5    8.36    1.55
 -17  -6   5   12.88    1.76
  17   6   5    9.89    1.91
  -6  17   5   14.36    1.87
   4 -17  -5    6.55    1.35
  17   4  -5    7.68    1.45
  -4  17  -5    7.71    1.69
  17   4   5    9.32    1.45
 -17  -4   5    9.40    1.53
  -2  17  -5    6.63    1.16
  17   2  -5    3.83    0.86
  17   2   5    4.49    1.29
  17   0  -5    0.07    0.86
   0  17  -5   -0.58    1.06
  17   0   5   -1.26    1.22
 -17   0   5   -0.79    1.12
  17  -2  -5    1.92    0.92
   2  17  -5    2.25    1.18
 -17   2   5    0.95    1.13
   4  17  -5    0.60    1.17
  17  -4  -5    1.83    0.96
 -17   4   5   -0.92    1.20
   6  17  -5    2.05    1.28
  17  -6  -5    1.14    1.01
 -17   6   5    0.89    1.22
  17  -8  -5    0.14    1.16
   8  17  -5    0.41    1.38
 -17   8   5   -1.75    1.23
  10  17  -5   -0.34    1.97
  17 -10  -5   -0.47    1.51
 -17  10   5   -0.56    1.22
  17 -12  -5    1.33    1.39
 -17  12   5    0.79    1.11
  12  17   5    1.47    1.21
  18   9  -5    0.12    1.03
  -9  18  -5    0.37    1.40
  18   9   5   -0.20    1.06
  -9  18   5    3.62    1.43
 -18  -9   5    0.49    2.93
  -7  18  -5    2.96    1.91
  18   7  -5    2.49    1.36
  18   7   5    0.89    2.01
 -18  -7   5    4.86    1.73
  18   5  -5    2.16    0.99
  -5  18  -5    2.16    1.19
 -18  -5   5    0.77    1.51
  18   5   5    2.17    1.27
  -3  18  -5    1.41    1.15
  18   3  -5    1.76    0.98
  18   3   5    0.66    1.35
 -18  -3   5    1.98    1.42
  18   1  -5    0.25    0.92
  -1  18  -5   -0.09    1.19
 -18  -1   5   -0.51    1.32
  18   1   5   -1.99    1.33
  18  -1  -5    0.97    0.83
   1  18  -5    1.26    1.25
 -18   1   5   -0.53    1.25
  18  -3  -5    0.20    0.91
   3  18  -5    2.09    1.24
 -18   3   5    0.06    1.30
   5  18  -5    0.27    1.35
  18  -5  -5    0.64    1.02
 -18   5   5   -2.30    1.33
  18  -7  -5    0.84    1.21
   7  18  -5    1.51    1.52
 -18   7   5   -2.94    2.17
  18  -9  -5    1.07    1.28
   9  18  -5    1.21    1.52
 -18   9   5    0.07    1.28
  -8  19  -5    3.06    1.33
  19   8  -5    3.07    1.06
 -19  -8   5    4.58    1.90
  19   8   5    0.66    1.26
  -6  19  -5    1.47    1.27
  19   6  -5    1.06    1.02
 -19  -6   5   -3.84    3.47
  19   6   5   -0.94    1.20
  19   4  -5    4.62    1.09
  -4  19  -5    4.44    1.37
 -19  -4   5    2.22    1.64
  -2  19  -5    0.07    2.03
  19   2  -5    0.47    1.13
 -19  -2   5   -2.63    1.43
  19   0  -5    0.18    1.04
   0  19  -5   -0.97    1.24
  19  -2  -5    1.07    1.34
   2  19  -5    1.90    1.43
   4  19  -5    0.75    2.11
  19  -4  -5    1.54    1.68
 -19   4   5   -3.64    2.12
   6  19  -5    1.56    1.46
  19  -6  -5    0.64    1.14
   8  19  -5    0.90    1.61
  19  -8  -5    0.13    1.27
 -19   8   5   -0.76    1.38
  -5  20  -5    0.42    1.23
  20   5  -5    0.12    0.97
  -3  20  -5    6.47    1.31
  20   3  -5    4.58    1.08
 -20  -3   5    2.95    1.71
  -1  20  -5    2.96    1.27
  20   1  -5    2.94    0.99
 -20  -1   5   -2.89    1.54
  20  -1  -5    3.24    0.98
   1  20  -5    4.69    1.34
   3  20  -5    0.28    1.39
  20  -3  -5   -0.44    1.01
   5  20  -5    0.86    1.51
  20  -5  -5   -0.15    1.18
   0   0  -6   -0.32    0.55
   0   0   6   -0.28    1.62
   0   0   6   -2.04    1.57
  -1   1  -6   15.03    1.16
  -1   1  -6   16.23    1.29
  -1  -1  -6   15.84    1.20
   1   1  -6   15.65    1.35
   1  -1  -6   15.42    1.23
   1   1  -6   14.99    1.15
  -1  -1   6   14.65    2.82
  -1  -1   6   16.70    2.95
   1  -1   6   16.98    2.79
   1  -1   6   14.33    2.47
  -1   1   6   14.94    2.87
   1   1   6   12.87    2.65
  -1   1   6   16.53    1.24
   1   1   6   17.18    2.77
   0   2  -6    0.90    0.57
   0   2  -6    0.70    0.68
   0  -2  -6    0.53    0.63
  -2   0  -6    0.18    0.67
  -2   0  -6    0.54    0.59
   2   0  -6    0.43    0.51
   0  -2   6    1.67    1.78
   0   2   6    2.58    1.61
   0  -2   6   -0.04    1.57
   2   0   6   -0.24    1.57
  -2   0   6    2.44    1.79
   0   2   6    0.55    0.59
   2  -2  -6   32.22    3.39
  -2   2  -6   29.97    1.65
   2   2  -6   30.43    1.64
  -2   2  -6   30.07    1.70
   2  -2  -6   30.65    1.65
   2   2  -6   31.07    1.79
  -2  -2  -6   30.68    1.70
   2   2   6   29.88    3.19
   2  -2   6   26.77    3.15
  -2  -2   6   31.10    3.37
  -2  -2   6   27.09    3.43
   2   2   6   25.62    1.57
  -2   2   6   28.59    3.34
   2  -2   6   27.25    3.23
   2   2   6   23.64    3.08
  -2   2   6   32.44    1.67
   3   1  -6    5.97    0.98
   1  -3  -6    4.95    2.03
  -1   3  -6    5.45    0.93
  -1   3  -6    6.17    1.06
   1  -3  -6    5.62    1.04
  -3  -1  -6    5.88    1.06
   1  -3   6    5.77    1.80
  -1   3   6   11.82    2.73
  -3  -1   6    2.34    1.75
   3   1   6    7.19    1.89
   1  -3   6    5.05    2.14
  -1   3   6    7.28    0.94
   3   1   6    4.19    1.85
   3  -1  -6    0.99    0.55
  -1  -3  -6    0.59    0.59
  -3   1  -6    1.04    0.64
  -3   1  -6    0.88    0.58
   1   3  -6    0.90    0.54
   1   3  -6    1.16    0.71
   3  -1  -6    3.05    1.69
   1   3   6    2.31    1.76
  -3   1   6    2.44    1.72
   3  -1   6    2.68    1.75
   3  -1   6    1.52    1.77
  -1  -3   6    1.50    1.73
  -1  -3   6    3.24    1.73
  -3   1   6    1.41    0.65
   1   3   6    1.94    0.57
   3  -3  -6    3.99    1.83
   3  -3  -6    1.33    0.53
  -3   3  -6    2.81    0.60
  -3  -3  -6    1.51    0.65
   3   3  -6    2.63    0.78
  -3   3  -6    3.35    0.71
   3   3  -6    2.27    0.59
  -3   3   6    1.62    1.96
  -3  -3   6    0.82    2.18
  -3   3   6    2.19    0.63
   3   3   6    1.36    0.57
   3   3   6   -0.13    2.87
  -3  -3   6    2.92    1.69
   3  -3   6    3.04    1.62
   2  -4  -6   11.98    1.21
   4   2  -6   12.12    1.40
  -2   4  -6   13.18    1.23
   2  -4  -6   16.34    2.96
   4   2  -6   12.30    1.14
  -2   4  -6   12.62    1.08
  -4  -2  -6   12.45    1.21
   4   2   6   15.32    1.00
  -2   4   6   12.89    1.16
  -4  -2   6   11.87    2.91
  -2   4   6   16.92    2.93
   4   2   6   14.61    2.73
   4   2   6   10.74    2.71
   2  -4   6   10.49    2.67
  -4  -2   6   10.19    2.53
   4   0  -6    9.92    2.57
  -4   0  -6    8.08    1.05
   4   0  -6    8.78    1.07
   0   4  -6    8.93    1.16
   0   4  -6    7.92    0.97
   0  -4  -6    7.80    1.09
  -4   0  -6    9.30    1.08
   0  -4  -6   11.33    2.27
   0   4   6   14.71    2.88
   4   0   6   14.86    2.65
   0  -4   6    5.93    1.94
   4   0   6    7.89    2.05
  -4   0   6    8.59    2.20
   0  -4   6   13.08    2.86
  -4   0   6    7.64    1.11
   2   4  -6   41.31    2.03
  -4   2  -6   40.25    2.06
  -2  -4  -6   40.41    2.10
   4  -2  -6   39.61    2.07
  -4   2  -6   39.48    2.04
   4  -2  -6   39.62    3.59
   2   4  -6   40.69    2.13
   2   4   6   40.81    3.64
   4  -2   6   39.41    3.73
   4  -2   6   38.95    3.76
  -4   2   6   31.47    3.76
   2   4   6   43.55    2.02
  -2  -4   6   39.33    3.90
  -4   2   6   40.48    2.07
  -2  -4   6   37.37    3.59
  -4  -4  -6    7.96    1.14
  -4   4  -6    8.04    1.10
  -4   4  -6    7.72    0.98
   4  -4  -6    7.79    2.17
   4   4  -6    8.28    1.01
   4  -4  -6    6.51    0.98
   4   4  -6    5.95    1.22
  -4   4   6    7.41    1.08
   4  -4   6    8.07    2.08
   4  -4   6    2.78    2.03
   4   4   6   13.26    2.64
   4   4   6    5.29    0.74
  -4   4   6    9.40    2.24
   3  -5  -6    7.45    1.29
  -5  -3  -6    9.97    1.15
  -3   5  -6    9.95    1.13
   5   3  -6    8.95    1.08
   3  -5  -6    3.12    2.46
   5   3  -6    9.24    1.36
  -3   5  -6    7.97    0.95
   5   3   6    5.71    2.24
  -3   5   6    9.40    1.10
  -3   5   6    7.85    2.26
   3  -5   6   12.46    2.77
   3  -5   6   14.35    3.09
   1  -5  -6    0.27    0.69
   1  -5  -6    0.86    1.75
   5   1  -6    0.23    0.54
  -1   5  -6    0.35    0.67
  -5  -1  -6    0.86    0.65
  -1   5  -6    0.82    0.54
   5   1   6    2.99    1.82
  -5  -1   6    0.32    0.67
  -5  -1   6    1.40    1.76
  -1   5   6    1.27    0.62
  -1   5   6    4.06    2.03
   1  -5   6    0.51    1.73
   5   1   6   -1.51    1.65
  -1  -5  -6   -0.18    0.68
  -1  -5  -6    1.57    1.77
  -5   1  -6    0.49    0.59
   1   5  -6    0.20    0.70
  -5   1  -6    0.16    0.63
   1   5  -6    0.19    0.53
   5  -1  -6   -3.09    1.83
   5  -1  -6    0.12    0.61
  -5   1   6   -0.37    0.60
  -1  -5   6    1.09    1.84
   1   5   6    0.93    1.95
   5  -1   6    1.94    1.76
   5  -1   6    2.34    1.81
  -5   1   6    2.25    1.89
  -1  -5   6    3.19    1.71
  -3  -5  -6   33.19    1.83
   3   5  -6   32.57    1.88
  -5   3  -6   33.30    1.79
   5  -3  -6   28.60    2.02
   3   5  -6   33.04    1.76
   5  -3  -6   29.89    3.41
   3   5   6   28.03    3.59
   5  -3   6   24.22    3.51
   5  -3   6   34.47    3.52
  -5   3   6   33.13    1.78
   3   5   6   29.60    3.46
   3   5   6   33.47    1.70
  -5   3   6   26.20    3.69
  -5  -5  -6    0.06    0.60
  -5   5  -6   -0.19    0.63
   5  -5  -6    1.77    2.52
   5   5  -6   -0.28    0.62
   5  -5  -6   -0.22    0.55
   5   5  -6   -0.51    0.75
  -5   5   6    0.03    0.68
  -5   5   6   -0.21    2.64
   5  -5   6   -0.65    2.08
   5  -5   6    1.65    1.64
  -4   6  -6   19.57    1.42
   6   4  -6   19.84    1.39
   4  -6  -6   17.60    3.31
   4  -6  -6   18.60    1.33
   6   4  -6   20.93    1.57
  -4   6   6   13.62    3.19
  -4   6   6   19.47    1.43
   4  -6   6   20.35    3.48
   4  -6   6   19.57    2.97
   2  -6  -6   18.98    1.80
   6   2  -6   17.71    1.36
  -2   6  -6   18.86    1.39
   2  -6  -6   14.11    2.74
  -2   6  -6   17.14    1.21
   2  -6   6   26.48    3.33
   6   2   6   20.21    3.25
  -2   6   6   17.29    3.20
  -2   6   6   18.45    1.36
   2  -6   6   16.89    3.04
   0  -6  -6    2.70    1.85
   6   0  -6    2.19    0.61
   0   6  -6    3.37    0.63
  -6   0  -6    5.07    0.93
   0   6  -6    3.26    0.75
   0   6   6    3.82    0.72
  -6   0   6    3.63    0.72
   0  -6   6    3.95    1.84
   0  -6   6   -0.28    1.69
   0   6   6    2.58    2.14
  -2  -6  -6   64.26    4.77
   2   6  -6   70.61    3.22
  -6   2  -6   71.60    3.26
   2   6  -6   72.72    3.31
   2   6   6   68.44    3.23
   2   6   6   65.80    5.15
   6  -2   6   67.51    4.86
   6  -2   6   66.54    4.68
  -6   2   6   69.74    3.25
   4   6  -6   12.89    1.17
   4   6  -6   12.59    1.33
  -6   4  -6   12.01    1.17
  -4  -6  -6   12.26    1.26
   6  -4  -6   12.16    1.21
   6  -4   6   18.94    3.03
  -6   4   6   12.42    1.33
   6  -4   6   16.87    2.95
   6  -6  -6   20.03    1.46
  -6   6  -6   20.66    1.50
   6   6  -6   22.18    1.51
   6   6  -6   22.93    1.64
   6  -6   6   17.71    4.16
  -6   6   6   21.36    1.53
   7   5  -6   31.07    1.97
  -5   7  -6   30.52    1.88
   7   5  -6   31.95    1.83
  -3   7  -6   93.18    4.24
   3  -7  -6   86.86    5.90
   3  -7  -6   94.94    4.24
   7   3  -6   97.60    4.26
  -3   7   6   94.63    4.25
  -3   7   6   78.80    6.32
   1  -7  -6    1.51    0.63
  -1   7  -6    3.95    0.78
  -1   7  -6    2.60    0.56
   1  -7  -6    5.01    2.12
  -7  -1   6    2.92    0.76
  -1   7   6    2.08    0.73
  -1   7   6   -3.27    2.38
  -1  -7  -6   14.42    3.17
  -1  -7  -6    8.77    1.18
   7  -1  -6    9.01    1.12
   1   7  -6    8.54    1.83
   1   7  -6    9.35    1.00
   7  -1   6    8.09    2.33
   1   7   6    7.50    2.66
  -7   1   6    9.16    1.06
   7  -1   6   14.85    3.26
   7  -3  -6    0.60    0.59
   3   7  -6    0.44    0.75
   3   7  -6    0.92    0.62
  -3  -7  -6    0.44    0.64
  -7   3  -6    0.96    0.64
   7  -3   6    2.24    1.93
   7  -3   6    1.80    2.10
  -7   3   6   -0.17    0.68
   5   7  -6    2.84    0.84
  -5  -7  -6    2.93    0.69
  -7   5  -6    4.00    0.77
   5   7  -6    3.34    0.71
   7  -5  -6    3.13    0.78
  -7   5   6    3.74    0.82
   7  -7  -6   85.93    4.06
   7   7  -6   88.77    4.07
   7   7  -6   84.70    4.14
  -7   7  -6   92.50    4.16
  -7   7   6   85.43    4.08
   8   6  -6   18.11    1.69
   8   6  -6   20.90    1.51
  -6   8  -6   20.17    1.59
   6  -8  -6   17.86    1.45
  -6   8   6   18.72    1.59
   4  -8  -6    9.94    1.26
  -4   8  -6    9.99    1.30
   8   4  -6    9.91    1.25
  -4   8   6   10.20    1.36
  -2   8  -6   37.64    2.00
   2  -8  -6   36.57    1.98
   8   2  -6   36.95    1.95
   2  -8  -6   30.57    3.98
  -2   8   6   28.37    4.66
  -2   8   6   34.29    2.05
  -8  -2   6   36.03    2.01
   0  -8  -6   13.68    2.82
   0   8  -6   16.11    1.34
   8   0  -6   15.48    1.28
   0  -8  -6   17.06    1.34
  -8   0   6   14.65    1.26
   0   8   6   11.84    1.36
   0   8   6    7.39    3.04
  -2  -8  -6    0.55    0.69
   2   8  -6    1.20    0.60
   8  -2  -6    0.36    0.63
   2   8  -6    0.66    0.77
  -8   2   6    0.85    0.70
  -8   4  -6    4.34    0.75
   4   8  -6    3.69    0.71
  -4  -8  -6    3.36    0.71
   8  -4  -6    3.31    0.71
   4   8  -6    4.30    0.86
  -8   4   6    3.71    0.78
   8  -4   6    4.41    2.09
   6   8  -6   15.72    1.50
  -8   6  -6   16.08    1.43
   8  -6  -6   15.77    1.38
   6   8  -6   15.60    1.40
  -8   6   6   16.03    1.42
   8  -6   6   22.47    4.35
   8  -8  -6    3.42    0.74
   8   8  -6    6.57    1.04
   8   8  -6    4.63    0.83
  -8   8  -6    6.46    1.42
  -8   8   6    5.41    0.93
   9   7  -6    0.28    0.97
   7  -9  -6    0.12    0.73
  -7   9  -6    0.05    0.92
   9   7  -6   -0.60    0.79
  -7   9   6   -0.35    0.88
   5  -9  -6    0.02    0.79
  -5   9  -6    0.20    0.86
   9   5  -6    0.54    0.72
  -5   9   6    0.11    0.88
   9   3  -6    0.12    0.66
  -3   9  -6   -0.07    0.78
   3  -9  -6    0.14    0.76
  -3   9   6   -1.40    0.81
  -9  -3   6   -0.07    0.76
  -1   9  -6   12.04    1.29
   1  -9  -6   15.03    3.77
   1  -9  -6   13.04    1.32
   9   1  -6   12.43    1.24
  -9  -1   6   12.01    1.21
  -1   9   6    8.19    1.32
  -1   9   6    5.55    2.91
  -1  -9  -6    0.24    0.70
   1   9  -6   -0.31    0.76
   9  -1  -6   -0.37    0.67
  -9   1   6    0.00    0.73
   9  -3  -6    6.12    1.14
  -3  -9  -6    3.85    0.75
   3   9  -6    6.18    0.92
  -9   3   6    5.58    0.86
   5   9  -6    0.98    0.68
   5   9  -6    0.11    0.82
   9  -5  -6    0.45    0.67
  -9   5  -6    0.67    0.75
  -9   5   6    0.93    0.75
   9  -7  -6   19.73    1.50
   7   9  -6   20.47    1.59
  -9   7  -6   16.54    1.75
   7   9  -6   18.97    1.64
  -9   7   6   19.22    1.61
  -9   9  -6    0.79    0.98
   9   9  -6    0.39    0.81
   9  -9  -6    0.54    0.88
   9   9  -6    0.35    1.01
  -9   9   6    0.25    0.94
  10   8  -6    1.55    1.07
  10   8  -6    0.56    0.80
   8 -10  -6    0.38    0.77
  -8  10  -6    1.37    1.01
  -8  10   6    0.41    0.88
   6 -10  -6    0.27    0.88
  -6  10  -6    0.02    0.90
  10   6  -6    0.04    0.78
  -6  10   6   -0.51    0.88
  -4  10  -6    1.77    0.86
   4 -10  -6    1.35    0.75
  10   4  -6    2.08    0.79
  -4  10   6    0.10    0.86
 -10  -4   6    0.74    0.83
  -2  10  -6   35.10    2.04
   2 -10  -6   36.76    2.05
  10   2  -6   37.09    2.03
   2 -10  -6   40.54    4.73
 -10  -2   6   35.65    2.00
  -2  10   6   33.53    2.09
  -2  10   6   23.73    5.65
   0 -10  -6    0.09    0.78
  10   0  -6   -0.19    0.69
   0  10  -6   -0.13    0.74
 -10   0   6    0.35    0.69
   2  10  -6    3.86    0.88
  10  -2  -6    1.92    0.68
  -2 -10  -6    2.75    0.77
 -10   2   6    2.81    0.76
   4  10  -6    4.13    0.91
  10  -4  -6    3.44    0.81
 -10   4   6    3.79    0.87
 -10   6  -6    1.08    0.89
   6  10  -6    0.95    0.91
  10  -6  -6    1.03    0.74
   6  10  -6    0.37    1.04
 -10   6   6    1.62    0.84
   8  10  -6   14.15    1.55
 -10   8  -6   15.31    1.57
  10  -8  -6   14.34    1.44
   8  10  -6   13.06    1.61
 -10   8   6   13.21    1.56
  10  10  -6    2.20    1.20
  10  10  -6    1.11    0.89
 -10  10  -6    1.81    1.13
  10 -10  -6    2.05    0.99
 -10  10   6    1.53    0.93
  11   9  -6    0.98    0.92
  -9  11  -6    1.41    1.15
   9 -11  -6    0.81    1.09
  -9  11   6    0.20    0.97
  11   7  -6   -0.09    0.85
  -7  11  -6    1.15    1.00
   7 -11  -6   -0.19    0.90
  -7  11   6   -0.48    0.92
  -5  11  -6    1.03    0.96
  11   5  -6    0.37    0.86
   5 -11  -6    0.67    0.83
 -11  -5   6    0.06    0.92
  -5  11   6   -0.32    0.92
   3 -11  -6   31.70    1.95
  11   3  -6   34.65    1.94
  -3  11  -6   31.87    2.02
  -3  11   6   31.24    2.12
  11   1  -6    0.29    0.76
   1 -11  -6    0.27    0.81
  -1  11  -6    0.09    0.84
 -11  -1   6    0.10    0.77
  -1 -11  -6    3.03    0.79
  11  -1  -6    1.86    0.71
   1  11  -6    1.93    0.83
 -11   1   6    3.44    0.82
  -3 -11  -6   13.44    1.33
  11  -3  -6   11.42    1.29
   3  11  -6   11.82    1.41
 -11   3   6   11.72    1.35
  11  -5  -6    0.45    0.67
  11  -7  -6    1.12    0.87
 -11   7  -6    1.87    0.97
   7  11  -6    1.53    0.96
 -11   7   6    1.02    0.85
   9  11  -6    2.78    1.15
 -11   9  -6    2.12    1.13
  11  -9  -6    2.05    0.94
 -11   9   6    0.99    0.90
  11  11  -6    1.36    0.99
  11 -11  -6    1.69    1.07
 -11  11  -6    3.53    1.35
  11  11  -6    0.58    1.33
 -11  11   6    0.24    0.96
  10 -12  -6    0.74    1.05
  12  10  -6   -1.01    0.97
 -10  12  -6    1.88    1.35
 -10  12   6    0.25    1.01
  12   8  -6    0.93    0.91
  -8  12  -6    2.15    1.23
   8 -12  -6    1.04    1.06
  -8  12   6    0.34    1.04
 -12  -8   6    1.48    1.15
  -6  12  -6    1.46    1.07
  12   6  -6    1.29    0.83
   6 -12  -6    1.08    0.91
  -6  12   6    0.37    0.99
 -12  -6   6   -0.06    1.06
  12   4  -6    0.84    0.75
   4 -12  -6    0.52    0.85
  -4  12  -6    0.78    0.97
 -12  -4   6    0.69    0.85
  -4  12   6    0.02    1.01
  -2  12  -6   15.53    1.59
  12   2  -6   14.69    1.44
   2 -12  -6   15.91    1.53
 -12  -2   6   14.43    1.46
   0  12  -6    0.24    0.81
  12   0  -6    0.20    0.78
   0 -12  -6   -0.03    0.81
 -12   0   6   -0.21    0.75
   2  12  -6   -0.15    0.83
  12  -2  -6    0.61    0.78
  -2 -12  -6    0.53    0.78
 -12   2   6   -0.14    0.78
  12  -4  -6    1.86    0.74
   4  12  -6    3.01    0.93
 -12   4   6    2.45    0.84
   6  12  -6   -0.39    0.96
  12  -6  -6   -0.21    0.76
 -12   6   6   -0.04    0.84
   8  12  -6    0.31    1.06
  12  -8  -6   -0.28    0.94
 -12   8  -6   -0.70    1.07
 -12   8   6    0.15    1.02
 -12  10  -6    2.34    1.35
  10  12  -6    0.46    1.29
  12 -10  -6    0.75    1.10
 -12  10   6    0.20    0.96
 -12  12  -6    2.52    1.56
  12 -12  -6    0.65    1.18
 -12  12   6    0.58    1.06
  13  11  -6    1.85    1.08
 -11  13  -6    3.39    1.56
  11 -13  -6    3.65    1.24
 -11  13   6    2.14    1.08
  13   9  -6    0.75    1.01
   9 -13  -6    0.85    1.15
  -9  13  -6   -0.55    1.31
  -9  13   6    0.29    0.99
 -13  -9   6    0.18    1.32
  13   7  -6   -0.75    0.88
  -7  13  -6   -0.08    1.18
   7 -13  -6    0.86    1.02
 -13  -7   6    0.91    1.22
  -7  13   6    0.01    1.00
   5 -13  -6    0.83    0.97
  -5  13  -6   -0.11    1.05
  13   5  -6   -0.04    0.90
  -5  13   6    1.42    1.02
 -13  -5   6    0.38    0.90
  13   3  -6   20.49    1.67
  -3  13  -6   20.68    1.84
   3 -13  -6   22.91    1.72
  -3  13   6   25.16    1.81
 -13  -3   6   21.95    1.74
  13   1  -6    3.05    0.88
   1 -13  -6    4.25    0.97
  -1  13  -6    4.41    1.03
 -13  -1   6    2.93    0.95
   1  13  -6    3.64    0.93
  13  -1  -6    1.22    0.73
  -1 -13  -6    3.01    0.93
 -13   1   6    3.15    0.86
  13  -3  -6   -0.20    0.71
   3  13  -6    0.53    0.92
  13  -3   6    2.23    1.00
 -13   3   6   -0.52    0.85
   5  13  -6    4.41    1.05
  13  -5  -6    3.24    0.85
 -13   5   6    4.05    0.97
  13  -7  -6   -0.16    0.84
   7  13  -6   -0.51    1.08
 -13   7   6   -0.79    1.00
   9  13  -6   -1.20    1.18
  13  -9  -6   -0.36    0.98
 -13   9   6   -0.43    0.96
  13 -11  -6   11.07    1.84
 -13  11  -6   10.55    2.05
  11  13  -6   12.00    1.68
 -13  13  -6    2.53    1.73
  13 -13  -6    4.32    1.36
 -13  13   6    2.60    1.10
 -12  14  -6    5.30    1.96
  12 -14  -6    1.49    1.36
 -14 -12   6   11.36    2.21
  10 -14  -6    2.88    1.26
 -10  14  -6    2.20    1.51
  14  10  -6    1.45    1.06
 -10  14   6    1.43    0.99
  14  10   6    3.44    1.22
 -14 -10   6    5.54    1.53
  -8  14  -6    2.60    1.40
   8 -14  -6    1.47    1.10
  14   8  -6    1.44    1.05
 -14  -8   6    3.74    1.38
  -8  14   6    2.07    1.01
  14   6  -6    7.77    1.12
  -6  14  -6    8.65    1.74
   6 -14  -6    7.98    1.65
  -6  14   6    8.38    1.51
 -14  -6   6    8.45    1.83
   4 -14  -6    2.18    1.02
  -4  14  -6    1.59    1.13
  14   4  -6    2.03    0.91
 -14  -4   6    2.36    1.03
   2 -14  -6    4.42    1.03
  -2  14  -6    5.91    1.14
  14   2  -6    3.20    0.82
 -14  -2   6    4.49    1.09
   0  14  -6   22.21    1.78
   0 -14  -6   20.81    1.84
  14   0   6   28.26    2.14
 -14   0   6   22.94    1.80
   2  14  -6    9.52    1.42
  14  -2  -6   10.14    1.38
 -14   2   6    9.60    1.43
  14  -2   6   13.35    1.76
  14  -4  -6    1.60    0.80
   4  14  -6    2.94    1.05
  14  -4   6    1.20    1.13
 -14   4   6    1.21    0.94
   6  14  -6    0.15    1.09
  14  -6  -6    0.28    0.86
 -14   6   6   -0.66    0.96
  14  -8  -6    2.10    1.06
   8  14  -6    2.83    1.25
 -14   8   6    0.46    0.99
  14 -10  -6    6.43    1.26
  10  14  -6    6.72    1.51
  12  14  -6   -0.25    1.69
 -14  12  -6    3.12    1.73
  14 -12  -6    3.80    2.43
 -14  12   6    0.45    1.08
  11 -15  -6    2.63    1.33
  15  11  -6    0.66    1.14
 -11  15  -6    0.02    1.91
 -11  15   6    0.86    1.04
 -15 -11   6    6.16    1.84
  15  11   6    1.66    1.00
   9 -15  -6    3.03    1.26
  -9  15  -6    1.76    1.43
  15   9  -6    1.89    1.10
  -9  15   6    2.58    1.10
  15   9   6    2.22    1.13
 -15  -9   6    3.16    1.67
  -7  15  -6    3.84    1.38
  15   7  -6    1.44    0.98
   7 -15  -6    3.45    1.15
  15   7   6    5.27    1.27
 -15  -7   6    3.48    1.46
  -7  15   6    3.18    1.07
  15   5  -6    1.56    0.98
  -5  15  -6    1.20    1.19
   5 -15  -6    2.59    1.14
  15   5   6    4.02    1.33
 -15  -5   6    3.34    1.28
  15   3  -6    0.00    0.91
   3 -15  -6    0.41    1.08
  -3  15  -6    1.06    1.09
  15   3   6    3.44    1.26
 -15  -3   6    0.74    1.12
  -1  15  -6    1.04    1.12
  15   1  -6    0.96    0.90
   1 -15  -6   -0.24    1.07
 -15  -1   6    1.32    1.08
  15   1   6    1.41    1.20
   1  15  -6   11.03    1.60
  15  -1  -6   10.35    1.42
  15  -1   6   11.28    1.87
 -15   1   6    9.84    1.57
   3  15  -6   -1.19    1.01
  15  -3  -6    0.35    0.86
 -15   3   6    0.17    1.01
  15  -3   6   -2.50    1.12
  15  -5  -6   -0.12    0.94
   5  15  -6    0.28    1.10
 -15   5   6   -0.45    0.99
   7  15  -6    1.35    1.23
  15  -7  -6    0.82    1.08
 -15   7   6   -1.10    1.09
  15  -9  -6    0.28    1.10
   9  15  -6    0.40    1.37
 -15   9   6   -1.15    1.13
  11  15  -6   -2.48    1.58
  15 -11  -6   -0.80    1.47
 -15  11   6   -0.47    1.11
  10 -16  -6    4.43    1.57
  16  10  -6    1.99    1.17
 -10  16  -6    2.94    1.58
  16  10   6    3.67    1.22
 -16 -10   6    7.28    1.87
  -8  16  -6    0.35    1.56
   8 -16  -6    0.30    1.22
  16   8  -6    0.87    1.00
  -8  16   6    2.93    1.13
 -16  -8   6    1.34    1.63
  16   8   6    0.78    1.47
  -6  16  -6    1.74    1.29
  16   6  -6    1.96    0.93
   6 -16  -6    2.69    1.23
 -16  -6   6    4.18    1.48
  16   6   6    4.49    1.37
   4 -16  -6    4.38    1.22
  16   4  -6    3.70    0.98
  -4  16  -6    3.92    1.30
  16   4   6    5.64    1.30
 -16  -4   6    6.46    1.42
  -2  16  -6    3.42    1.19
   2 -16  -6    0.47    1.18
  16   2  -6    1.83    0.86
  16   2   6    4.74    1.38
 -16  -2   6    3.97    1.21
   0  16  -6   -0.19    1.05
  16   0  -6    0.32    0.87
 -16   0   6   -0.25    1.13
  16   0   6   -0.35    1.24
   2  16  -6    1.20    1.12
  16  -2  -6    0.47    0.84
 -16   2   6   -0.12    1.04
  16  -2   6   -0.79    1.21
   4  16  -6    1.93    1.17
  16  -4  -6    1.57    0.89
 -16   4   6    1.23    1.12
  16  -6  -6    4.22    1.02
   6  16  -6    3.80    1.32
 -16   6   6    1.95    1.26
  16  -8  -6    1.15    1.28
   8  16  -6    2.14    2.07
 -16   8   6   -1.11    1.30
  10  16  -6    1.84    1.59
  16 -10  -6    2.82    1.25
 -16  10   6    0.69    1.16
  17   9  -6    1.79    1.11
  -9  17  -6    2.06    1.48
 -17  -9   6    1.63    1.81
  17   9   6    0.85    1.07
  17   7  -6    2.49    1.05
  -7  17  -6    3.26    1.48
   7 -17  -6    1.91    1.91
  17   7   6    2.40    1.33
 -17  -7   6    2.83    1.95
   5 -17  -6   -2.07    1.23
  17   5  -6    1.66    1.01
  -5  17  -6    1.26    1.50
  17   5   6    0.75    1.32
 -17  -5   6    1.54    1.52
   3 -17  -6   -1.21    1.25
  17   3  -6    0.05    0.93
  -3  17  -6    0.62    1.26
  17   3   6    1.34    1.32
 -17  -3   6    0.30    1.37
  -1  17  -6   -0.25    1.13
  17   1  -6    0.28    0.82
  17   1   6   -0.68    1.33
 -17  -1   6   -0.65    1.23
   1  17  -6    3.07    1.19
  17  -1  -6    2.78    0.97
 -17   1   6    2.93    1.24
  17  -1   6   -0.63    1.34
  17  -3  -6    1.44    0.96
   3  17  -6    3.60    1.21
 -17   3   6    1.55    1.22
   5  17  -6   -0.38    1.91
  17  -5  -6   -0.57    1.27
 -17   5   6   -3.68    1.62
  17  -7  -6    1.52    1.10
   7  17  -6    0.73    1.32
 -17   7   6   -1.96    1.18
  17  -9  -6    3.87    1.24
   9  17  -6    3.73    1.57
 -17   9   6    0.76    1.22
  18   6  -6    1.50    0.99
  -6  18  -6    4.36    1.40
  18   6   6    2.82    1.28
 -18  -6   6    2.84    1.67
  18   4  -6    2.22    0.93
  -4  18  -6    3.94    1.39
 -18  -4   6    1.98    1.58
  18   4   6    3.48    1.43
  -2  18  -6    4.18    1.35
  18   2  -6    1.80    0.92
 -18  -2   6    1.48    1.82
  18   2   6    4.52    1.58
   0  18  -6    0.20    1.20
  18   0  -6   -1.08    0.90
 -18   0   6   -2.31    1.93
  18  -2  -6   -0.29    0.95
   2  18  -6   -1.18    1.19
 -18   2   6   -2.15    1.45
  18  -4  -6   -0.37    0.95
   4  18  -6    0.51    1.34
   6  18  -6   -1.38    1.45
  18  -6  -6    0.28    1.16
  -3  19  -6    3.10    1.33
  19   3  -6    2.29    0.96
 -19  -3   6   -0.84    1.50
  19   3   6   -1.58    1.49
  19   1  -6   -0.41    0.98
  -1  19  -6   -0.08    1.19
 -19  -1   6   -2.50    1.43
  19  -1  -6    1.33    1.03
   1  19  -6    0.33    1.30
 -19   1   6   -2.76    1.37
  19  -3  -6   -0.07    1.02
   3  19  -6    0.18    1.35
   0   1  -7    6.20    1.11
   0  -1  -7    6.05    1.12
   1   0  -7    6.60    1.28
   1   0   7    8.43    2.32
   0  -1   7    5.20    2.15
  -1   0   7    6.64    1.19
   0   1   7    6.35    1.15
   0   1   7    9.19    2.47
   0  -1   7    5.85    3.44
   0   1   7    7.71    2.30
  -1   0   7    8.21    2.35
  -1   2  -7    0.70    0.82
  -1   2  -7    0.19    0.66
   1  -2  -7   -0.22    0.73
  -2  -1  -7   -0.18    0.71
  -1   2   7    0.75    0.72
  -1   2   7   -3.93    2.22
   2   1   7    5.42    2.15
   1  -2   7    2.27    2.09
   2  -1  -7    8.02    1.24
  -2   1  -7    8.63    1.35
  -1  -2  -7    7.16    1.24
   1   2  -7    7.73    1.40
  -2   1  -7    8.35    1.14
   1   2  -7    8.69    1.14
   2  -1   7    7.19    2.40
   1   2   7    9.77    1.12
  -2   1   7    9.14    1.20
  -2   1   7    8.70    2.76
   1   2   7    7.71    2.33
   3   2  -7   16.46    1.31
   2  -3  -7   16.08    1.38
  -3  -2  -7   17.75    1.43
  -2   3  -7   16.15    1.44
  -2   3  -7   16.72    1.30
   2  -3   7   19.87    3.50
   3   2   7   15.38    4.22
   3   2   7    7.16    3.90
  -2   3   7   17.07    1.38
   3   2   7   12.53    1.27
   3   0  -7    3.17    0.71
   0   3  -7    2.73    0.69
   0  -3  -7    2.63    0.68
   0   3  -7    4.43    0.92
  -3   0  -7    4.61    1.44
   0   3   7    2.19    2.59
   3   0   7   -0.85    2.21
   3   0   7    0.93    2.10
  -3   0   7    5.61    1.32
  -3   2  -7   23.21    1.66
   3  -2  -7   24.47    1.52
  -2  -3  -7   22.97    1.59
  -3   2  -7   23.68    1.54
   2   3  -7   25.63    1.78
   2   3  -7   23.68    1.59
   3  -2   7   28.63    3.64
   2   3   7   29.34    3.83
   2   3   7   22.52    1.51
   2   3   7   15.12    4.04
  -3   2   7   21.99    1.87
   3  -2   7   16.71    3.62
   4   3  -7    2.65    0.69
  -3   4  -7    3.83    0.75
  -3   4  -7    4.64    0.88
  -4  -3  -7    3.91    0.82
   3  -4  -7    2.26    0.73
  -4  -1  -7    0.93    0.71
   1  -4  -7    0.23    0.75
  -1   4  -7    0.60    0.65
   4   1  -7    0.70    0.67
  -1   4   7    4.91    2.38
   4   1   7    2.55    1.04
  -1   4   7    0.74    0.72
  -4  -1   7   -0.10    0.80
  -1  -4  -7    0.79    0.75
   1   4  -7    0.56    0.67
   1   4  -7    1.34    0.83
  -4   1  -7    0.83    1.01
   4  -1  -7    0.48    0.63
  -4   1  -7    0.56    0.79
   1   4   7    3.49    2.32
   1   4   7    1.42    2.42
   4  -1   7    0.03    2.32
   4  -1   7    4.68    2.37
  -4   1   7    1.22    0.76
   3   4  -7   42.38    2.23
   4  -3  -7   42.11    2.20
  -4   3  -7   42.13    2.29
   3   4  -7   42.89    2.39
  -4   3  -7   41.30    2.22
  -3  -4  -7   43.03    2.24
   4  -3   7   38.60    4.50
   4  -3   7   37.76    4.50
  -4   3   7   42.71    2.27
  -5  -4  -7    9.38    1.24
   4  -5  -7    7.35    1.28
   5   4  -7    7.67    1.53
  -4   5  -7    7.53    0.89
   5   4  -7    8.51    1.24
  -4   5   7    7.86    1.26
   2  -5  -7    1.36    0.79
  -5  -2  -7    1.95    0.77
   2  -5  -7   -8.25    4.56
  -2   5  -7    2.08    0.85
  -2   5  -7    1.58    0.71
   5   2  -7    1.05    0.66
  -2   5   7    1.27    0.78
  -5  -2   7    1.93    0.85
   0  -5  -7    0.31    0.73
   5   0  -7    0.55    0.69
  -5   0  -7    0.54    0.72
   0   5  -7    0.19    0.66
   0   5  -7    0.66    0.83
   0   5   7    5.60    2.80
  -5   0   7    0.31    0.72
   0   5   7    1.49    0.74
   5  -2  -7    6.17    1.10
  -5   2  -7    4.48    0.82
  -2  -5  -7    6.68    1.23
  -5   2  -7    5.50    1.20
   2   5  -7    6.64    1.16
   2   5  -7    5.48    0.94
  -5   2   7    5.49    1.18
   5  -4  -7   19.70    1.43
  -5   4  -7   20.40    1.58
   4   5  -7   20.73    1.74
  -4  -5  -7   20.05    1.53
   5  -4   7   19.71    4.30
  -5   4   7   20.87    1.56
  -5   6  -7   -0.31    0.87
   6   5  -7   -0.54    0.95
   6   5  -7    0.07    0.73
   5  -6  -7   -0.14    0.70
  -5   6   7    0.30    0.86
   3  -6  -7    3.30    0.75
   6   3  -7    6.34    0.87
  -3   6  -7    5.77    0.94
  -3   6  -7    4.34    0.80
  -3   6   7    5.68    1.25
   1  -6  -7   -0.28    0.72
  -1   6  -7    0.13    0.68
   6   1  -7   -0.03    0.68
  -1   6  -7   -0.12    0.80
  -1   6   7    0.33    0.81
  -6  -1   7   -0.15    0.76
  -1   6   7   -2.78    2.88
  -1  -6  -7   -0.54    0.70
   6  -1  -7    0.11    0.73
   1   6  -7   -0.41    0.84
   1   6  -7    0.54    0.71
  -6   1   7   -0.40    0.75
  -6   3  -7   21.48    1.60
   3   6  -7   24.76    1.62
   6  -3  -7   21.67    1.54
   3   6  -7   22.39    1.71
  -3  -6  -7   23.45    1.62
  -6   3   7   21.81    1.62
   6  -5  -7    8.78    1.19
  -6   5  -7   10.87    1.75
   5   6  -7   10.40    1.54
  -5  -6  -7   10.19    1.24
   5   6  -7   10.92    1.32
  -6   5   7   10.36    1.34
   7   6  -7   25.13    1.69
   6  -7  -7   22.24    1.60
  -6   7  -7   23.33    1.80
   7   6  -7   23.15    1.88
  -6   7   7   22.99    1.74
   7   4  -7   15.96    1.37
   4  -7  -7   13.21    1.41
  -4   7  -7   12.81    1.55
  -4   7   7   12.28    1.49
   2  -7  -7   33.17    1.96
   7   2  -7   34.80    1.97
  -2   7  -7   35.25    2.06
  -2   7   7   33.09    2.05
  -7  -2   7   32.41    2.01
   0  -7  -7    2.07    0.75
   0   7  -7    2.69    0.89
   0   7  -7    3.50    0.74
   7   0  -7    1.29    0.67
  -7   0   7    1.69    0.73
   2   7  -7   39.60    2.31
   7  -2  -7   41.84    2.20
  -2  -7  -7   42.14    2.23
   2   7  -7   41.79    2.22
  -7   2   7   39.29    2.25
   4   7  -7   45.67    2.51
  -4  -7  -7   46.62    2.39
   4   7  -7   46.89    2.45
   7  -4  -7   46.87    2.38
  -7   4  -7   42.33    2.48
  -7   4   7   45.71    2.45
   7  -6  -7    2.35    0.74
   6   7  -7    2.71    1.01
   6   7  -7    2.30    0.80
  -7   6  -7    2.75    0.93
  -7   6   7    2.61    0.88
  -7   8  -7    0.68    0.96
   7  -8  -7    0.78    0.98
   8   7  -7    1.42    0.86
   8   7  -7    1.45    1.09
  -7   8   7   -0.04    0.93
   8   5  -7    1.51    0.78
  -5   8  -7    1.96    0.97
   5  -8  -7    1.55    0.82
  -5   8   7    0.85    0.89
  -3   8  -7    0.39    0.94
   8   3  -7    0.36    0.80
   3  -8  -7    0.44    0.80
  -8  -3   7   -0.42    0.84
  -3   8   7   -1.71    0.89
   8   1  -7   12.28    1.33
   1  -8  -7   12.06    1.38
  -1   8  -7   12.10    1.42
  -8  -1   7   11.27    1.29
   1   8  -7    0.69    0.89
  -1  -8  -7    0.35    0.79
   8  -1  -7   -0.19    0.67
  -8   1   7   -0.16    0.69
  -3  -8  -7    9.88    1.33
   3   8  -7    9.23    1.37
   8  -3  -7   10.49    1.25
   3   8  -7   11.72    1.35
  -8   3   7   11.23    1.34
   5   8  -7   37.62    2.12
   8  -5  -7   35.04    2.04
   5   8  -7   35.83    2.21
  -8   5  -7   37.18    2.36
  -8   5   7   35.01    2.11
   7   8  -7    4.32    0.91
  -8   7  -7    2.42    0.96
   7   8  -7    2.70    1.04
   8  -7  -7    2.84    0.84
  -8   7   7    2.83    0.92
   8  -9  -7   -0.11    0.79
   9   8  -7    1.67    0.94
  -8   9  -7    1.50    1.08
  -8   9   7   -0.13    0.96
  -6   9  -7    7.46    1.53
   6  -9  -7    5.23    0.91
   9   6  -7    7.62    1.44
  -6   9   7    4.99    1.11
  -4   9  -7    9.53    1.51
   9   4  -7    8.58    1.39
   4  -9  -7    9.10    1.32
  -9  -4   7    8.26    1.40
  -4   9   7    6.15    1.15
  -2   9  -7    0.42    0.94
   2  -9  -7   -0.50    0.79
   9   2  -7   -0.36    0.73
  -9  -2   7    0.01    0.73
   9   0  -7    8.91    1.29
   0  -9  -7    8.40    1.37
   0   9  -7    8.61    1.39
  -9   0   7    9.70    1.28
   9  -2  -7   16.39    1.43
  -2  -9  -7   17.42    1.48
   2   9  -7   15.58    1.56
  -9   2   7   15.80    1.47
  -4  -9  -7   11.01    1.32
   4   9  -7   10.93    1.47
   9  -4  -7   11.16    1.28
  -9   4   7   11.13    1.34
   9  -6  -7   -0.76    0.73
   6   9  -7    0.10    0.94
  -9   6  -7   -0.04    0.95
   6   9  -7    0.76    0.92
  -9   6   7    0.39    0.89
   8   9  -7    0.34    1.07
   9  -8  -7    0.39    0.77
   8   9  -7    0.95    0.90
  -9   8  -7    0.86    1.00
  -9   8   7   -1.58    0.94
  10   9  -7    0.87    1.00
   9 -10  -7    0.72    0.95
  -9  10  -7    2.18    1.23
  10   7  -7    4.87    1.00
   7 -10  -7    3.52    0.93
  -7  10  -7    4.83    1.21
  -7  10   7    2.55    1.06
  -5  10  -7    6.51    1.16
  10   5  -7    4.72    0.91
   5 -10  -7    6.23    1.01
 -10  -5   7    4.29    1.03
  -5  10   7    2.44    1.04
   3 -10  -7    0.29    0.90
  10   3  -7    0.62    0.76
  -3  10  -7    1.63    1.01
 -10  -3   7    0.86    0.87
  -3  10   7   -1.90    0.93
  10   1  -7   42.54    2.26
  -1  10  -7   40.13    2.39
   1 -10  -7   41.39    2.31
 -10  -1   7   40.55    2.28
  10  -1  -7   30.78    1.87
   1  10  -7   30.34    1.99
  -1 -10  -7   31.92    1.94
 -10   1   7   29.69    1.87
   3  10  -7    9.11    1.39
  -3 -10  -7    9.17    1.29
  10  -3  -7    8.15    1.32
 -10   3   7    8.80    1.33
  10  -5  -7    8.08    1.27
   5  10  -7    8.35    1.50
 -10   5   7    7.54    1.36
   7  10  -7    0.18    1.08
  10  -7  -7   -0.24    0.76
 -10   7   7   -0.56    0.88
  10  -9  -7    0.93    0.95
   9  10  -7    2.17    1.23
 -10   9  -7    2.93    1.16
 -10   9   7    0.89    0.97
  10 -11  -7    0.20    1.08
  11  10  -7    0.39    1.06
 -10  11  -7    2.10    1.38
 -10  11   7   -0.93    0.97
  -8  11  -7   -0.18    1.25
  11   8  -7   -0.51    0.93
   8 -11  -7   -0.66    1.05
 -11  -8   7    1.18    1.17
   6 -11  -7    1.14    0.99
  11   6  -7   -0.74    0.92
  -6  11  -7    0.02    1.20
  -6  11   7   -0.70    1.01
 -11  -6   7    0.11    0.99
  -4  11  -7    0.88    1.06
  11   4  -7    1.10    0.80
   4 -11  -7    0.49    0.87
 -11  -4   7    1.45    0.92
  -4  11   7   -1.80    0.97
   2 -11  -7    0.55    0.90
  11   2  -7    0.79    0.78
  -2  11  -7    1.41    1.01
 -11  -2   7    1.23    0.88
   0  11  -7   -0.19    0.96
  11   0  -7   -0.12    0.75
   0 -11  -7   -0.40    0.79
 -11   0   7    0.10    0.83
  11  -2  -7   18.91    1.54
  -2 -11  -7   20.36    1.64
   2  11  -7   19.07    1.72
 -11   2   7   19.81    1.61
  11  -4  -7    0.42    0.81
   4  11  -7    1.17    0.99
 -11   4   7    1.27    0.91
   6  11  -7    0.70    1.03
  11  -6  -7    0.25    0.82
 -11   6   7    0.18    0.88
  11  -8  -7   -0.23    0.87
   8  11  -7   -0.92    1.17
 -11   8   7   -1.21    1.00
  10  11  -7    0.15    1.29
  11 -10  -7    1.10    1.04
 -11  10  -7    2.13    1.29
 -11  10   7   -0.95    0.97
  11 -12  -7    2.92    1.47
 -11  12  -7    3.43    1.56
  -9  12  -7    0.72    1.40
  12   9  -7   -0.09    1.04
   9 -12  -7    1.46    1.13
  -9  12   7   -0.08    1.00
 -12  -9   7    2.54    1.32
  -7  12  -7    1.03    1.30
  12   7  -7    1.00    0.97
   7 -12  -7    0.25    0.99
  -7  12   7   -0.57    1.00
 -12  -7   7    0.90    1.20
  -5  12  -7    0.57    1.17
  12   5  -7    0.78    0.92
   5 -12  -7   -0.53    0.93
  -5  12   7   -0.65    1.07
 -12  -5   7   -0.03    0.99
  -3  12  -7    5.31    1.17
  12   3  -7    3.62    0.88
   3 -12  -7    3.92    0.94
 -12  -3   7    4.14    1.00
  -1  12  -7   16.02    1.73
   1 -12  -7   17.32    1.64
  12   1  -7   16.18    1.53
 -12  -1   7   16.26    1.62
  -1 -12  -7    0.05    0.86
   1  12  -7    0.47    1.01
  12  -1  -7   -0.13    0.79
 -12   1   7   -0.06    0.92
  12  -3  -7   17.35    1.50
   3  12  -7   15.31    1.62
 -12   3   7   14.94    1.56
   5  12  -7    1.44    1.11
  12  -5  -7    1.20    0.87
 -12   5   7    0.72    0.89
   7  12  -7    1.82    1.14
  12  -7  -7    1.22    0.98
 -12   7   7    0.84    0.95
   9  12  -7    2.76    1.34
  12  -9  -7    2.60    1.02
 -12   9   7    1.42    1.08
  12 -11  -7    2.32    1.60
 -12  11   7   -2.58    2.16
  12 -13  -7    1.60    1.28
 -12  13  -7    3.38    1.74
 -12  13   7    1.24    1.06
  10 -13  -7    1.88    1.45
  13  10  -7    0.21    1.09
 -10  13  -7    1.03    1.60
 -10  13   7    0.62    1.28
 -13 -10   7    3.01    1.51
  13   8  -7    1.23    1.07
   8 -13  -7    1.04    1.06
  -8  13  -7   -0.68    1.44
  -8  13   7   -1.04    1.01
 -13  -8   7    0.32    1.23
  13   6  -7    0.26    0.96
  -6  13  -7    0.48    1.32
   6 -13  -7    1.03    1.06
  -6  13   7    2.29    1.10
 -13  -6   7    0.48    1.14
  13   4  -7    1.65    0.92
   4 -13  -7    0.54    0.95
  -4  13  -7    0.91    1.19
 -13  -4   7    0.39    1.03
   2 -13  -7    0.80    0.94
  -2  13  -7    0.98    1.13
  13   2  -7   -0.09    0.79
 -13  -2   7    0.88    0.97
  13   0  -7    3.84    0.92
   0 -13  -7    2.60    0.95
   0  13  -7    4.18    1.11
 -13   0   7    4.26    0.98
   2  13  -7    2.58    1.07
  13  -4  -7    1.24    0.77
   4  13  -7    0.97    1.10
 -13   4   7    0.52    0.97
  13  -6  -7   -0.74    0.95
   6  13  -7   -0.09    1.10
 -13   6   7   -0.61    0.99
   8  13  -7    0.82    1.23
  13  -8  -7    1.01    1.06
 -13   8   7   -1.78    1.05
  13 -10  -7    0.72    1.91
  10  13  -7    2.45    1.47
 -13  10   7    0.47    1.11
  13 -12  -7    1.70    1.24
 -13  12   7    0.58    1.07
  11 -14  -7    2.71    1.27
 -11  14  -7    3.59    1.75
 -14 -11   7    8.70    1.91
 -11  14   7    1.29    1.06
  14   9  -7    0.34    1.11
 -14  -9   7    1.75    1.55
  -7  14  -7    1.56    1.42
   7 -14  -7    1.65    1.12
  14   7  -7    1.95    1.07
 -14  -7   7    2.42    1.35
  -7  14   7    2.97    1.09
  14   5  -7    1.82    1.02
  -5  14  -7    0.82    1.28
   5 -14  -7    2.45    1.12
 -14  -5   7    3.33    1.28
  14   3  -7    1.43    0.94
  -3  14  -7    0.12    1.21
   3 -14  -7    0.05    1.01
 -14  -3   7   -0.07    1.17
  14   1  -7    3.69    0.85
   1 -14  -7    4.87    1.06
   1  14  -7    8.13    1.65
  -1 -14  -7    5.91    1.04
 -14   1   7    8.29    1.51
  14  -3  -7    1.95    0.93
   3  14  -7    1.56    1.13
 -14   3   7    0.45    1.01
  14  -3   7    4.92    1.21
  14  -5  -7    2.72    0.88
   5  14  -7    4.42    1.20
 -14   5   7    1.43    1.01
   7  14  -7   -1.04    1.22
  14  -7  -7    0.67    1.01
 -14   7   7   -1.86    1.08
  14  -9  -7    0.66    1.08
   9  14  -7   -0.02    1.35
  14 -11  -7    0.15    1.21
  11  14  -7   -2.55    1.57
 -14  11   7   -1.14    1.08
   8 -15  -7    0.27    1.48
  -8  15  -7    1.16    1.57
  15   8  -7    0.96    1.11
  15   8   7    4.50    1.29
  -8  15   7    2.67    1.32
 -15  -8   7    2.80    1.59
  15   6  -7    0.44    1.01
  -6  15  -7    1.95    2.00
   6 -15  -7    1.90    1.16
 -15  -6   7    3.24    2.34
  15   6   7    6.15    2.05
   4 -15  -7    0.96    1.13
  15   4  -7    1.39    0.98
  -4  15  -7   -0.01    1.29
 -15  -4   7    0.71    1.22
  15   4   7    3.38    1.49
  15   2  -7    2.63    0.99
  -2  15  -7    2.99    1.24
   2 -15  -7    0.66    1.10
 -15  -2   7    3.47    1.19
  15   0  -7    0.99    0.92
   0 -15  -7    0.14    1.05
   0  15  -7   -0.29    1.19
 -15   0   7   -0.69    1.14
  15   0   7    2.96    1.33
  15  -2  -7   -0.46    0.91
   2  15  -7    0.12    1.12
 -15   2   7   -0.65    1.01
  15  -2   7    4.12    1.29
   4  15  -7    2.36    1.28
  15  -4  -7    1.89    1.02
 -15   4   7    0.87    1.06
   6  15  -7    1.04    1.31
  15  -6  -7    0.21    1.07
 -15   6   7    0.26    1.14
   8  15  -7   -0.36    1.29
  15  -8  -7    0.79    1.03
 -15   8   7   -2.37    1.08
  -7  16  -7    0.52    1.46
   7 -16  -7    0.61    1.22
  16   7  -7   -0.18    1.10
  16   7   7    2.92    1.26
 -16  -7   7    1.41    1.59
   5 -16  -7    0.10    1.50
  16   5  -7    1.12    1.02
  -5  16  -7    2.44    1.35
  16   5   7    4.82    1.40
 -16  -5   7    1.87    1.37
   3 -16  -7   -0.33    1.16
  -3  16  -7    1.97    1.37
  16   3  -7    1.68    1.09
 -16  -3   7    0.47    1.41
  16   3   7    3.28    1.80
  16   1  -7   -0.65    1.09
  -1  16  -7    0.70    1.64
   1 -16  -7   -2.00    1.15
  16   1   7    3.25    1.42
 -16  -1   7   -1.39    1.54
  16  -1  -7    0.63    0.98
   1  16  -7   -1.24    1.30
 -16   1   7   -1.54    1.52
  16  -1   7    0.05    1.38
  16  -3  -7    3.65    1.03
   3  16  -7    2.97    1.22
 -16   3   7    1.60    1.17
   5  16  -7    1.84    1.31
  16  -5  -7    1.31    0.96
 -16   5   7   -0.32    1.15
  16  -7  -7   -0.45    1.07
   7  16  -7   -0.47    1.31
  -4  17  -7    0.70    1.38
  17   4  -7    0.23    0.92
   4 -17  -7   -1.06    1.29
 -17  -4   7   -0.39    1.40
  17   4   7    1.66    1.41
  -2  17  -7    1.41    1.25
  17   2  -7   -0.02    0.85
 -17  -2   7   -0.71    1.26
  17   2   7    0.50    1.48
   0  17  -7   -0.87    1.27
  17   0  -7    0.40    0.92
 -17   0   7   -2.33    1.20
  17  -2  -7    0.44    0.85
   2  17  -7    0.98    1.20
 -17   2   7   -0.02    1.21
   4  17  -7    1.01    1.26
  17  -4  -7    0.25    0.90
   0   0  -8   27.40    1.83
   0   0   8   28.02    1.84
  -1   1  -8    2.59    0.83
   1  -1  -8    2.31    0.77
  -1  -1  -8    2.85    0.81
   1   1  -8    2.54    0.83
  -1   1   8    4.93    0.95
  -1  -1   8    4.48    0.92
   1   1   8    6.13    1.30
   2   0  -8    0.85    0.80
   0  -2  -8    1.60    0.80
   0   2  -8    1.37    0.79
  -2   0  -8    2.74    0.87
   0   2   8    6.01    1.26
  -2   0   8    2.84    0.90
   2  -2  -8   17.57    1.50
  -2  -2  -8   18.03    1.59
  -2   2  -8   17.55    1.54
   2   2  -8   18.56    1.56
  -2   2   8   19.19    1.62
   3   1  -8   22.83    1.66
  -1   3  -8   20.12    1.85
   1  -3  -8   22.27    1.67
  -1   3  -8   22.24    1.63
  -3  -1  -8   22.80    1.62
  -3  -1   8   23.04    1.71
  -1   3   8   24.70    1.71
  -3   1  -8    3.40    0.85
   3  -1  -8    3.93    0.89
  -1  -3  -8    3.09    0.83
   1   3  -8    3.88    0.88
  -3   1   8    6.48    1.00
  -3   3  -8   13.33    1.61
   3   3  -8   15.44    1.47
   3  -3  -8   15.42    1.44
  -3  -3  -8   14.34    1.46
  -3   3  -8   12.78    1.44
  -3   3   8   15.11    1.51
   2  -4  -8   31.91    1.91
  -4  -2  -8   29.79    1.95
   4   2  -8   33.62    1.96
  -2   4  -8   29.67    2.13
  -2   4  -8   30.25    1.92
  -4  -2   8   32.37    2.01
  -2   4   8   31.57    2.01
  -4   0  -8    0.12    0.85
   0   4  -8    1.44    0.81
   0   4  -8    0.99    1.03
   4   0  -8    1.33    0.80
   0  -4  -8    0.95    0.86
  -4   0   8    1.10    0.83
  -4   2  -8    5.47    1.09
  -4   2  -8    6.16    1.27
   2   4  -8    7.04    1.33
   2   4  -8    7.18    1.22
   4  -2  -8    6.99    1.32
  -2  -4  -8    7.29    1.36
  -4   2   8    7.09    1.03
   4   4  -8    1.29    0.81
  -4   4  -8   -0.16    0.82
  -4   4  -8    1.32    0.96
  -4  -4  -8    0.98    0.77
   4  -4  -8    1.04    0.83
  -4   4   8    0.49    0.85
   3  -5  -8   -0.64    0.80
  -5  -3  -8    0.50    0.76
  -3   5  -8   -0.68    0.83
   5   3  -8    0.36    0.79
  -3   5  -8    0.30    0.93
  -5  -3   8    0.19    0.90
  -3   5   8   -0.61    0.89
   1  -5  -8    9.03    1.36
  -1   5  -8    8.08    1.33
  -1   5  -8    8.53    1.53
  -5  -1  -8    8.61    1.35
   5   1  -8    9.13    1.31
  -5  -1   8    8.37    1.36
  -1  -5  -8    2.87    0.93
   1   5  -8    2.64    1.06
   5  -1  -8    1.06    0.68
   1   5  -8    1.70    0.81
  -5   1   8    1.82    0.83
   3   5  -8   12.77    1.78
  -5   3  -8   11.31    1.53
   3   5  -8   12.92    1.46
  -3  -5  -8   12.94    1.45
  -5   3   8   14.23    1.47
   5  -5  -8    1.26    0.91
  -5   5  -8    1.32    0.96
   5   5  -8    2.84    0.91
  -5   5   8    0.85    0.91
  -4   6  -8    4.35    1.04
   4  -6  -8    2.80    0.89
   6   4  -8    3.51    0.89
  -4   6   8    2.58    1.01
  -6  -4   8    3.17    0.94
   6   2  -8    4.59    0.86
  -2   6  -8    5.78    1.08
   2  -6  -8    5.15    0.95
  -6  -2   8    3.22    0.95
  -2   6   8    3.96    1.05
   0   6  -8   15.47    1.68
   6   0  -8   13.31    1.42
   0  -6  -8   15.10    1.49
   0   6  -8   13.95    1.48
  -6   0   8   14.99    1.53
   6  -2  -8   42.85    2.29
  -2  -6  -8   42.52    2.33
   2   6  -8   42.68    2.55
   2   6  -8   43.00    2.35
  -6   2   8   41.77    2.37
  -4  -6  -8   19.84    1.57
  -6   4  -8   16.29    2.55
   4   6  -8   19.08    1.90
   6  -4  -8   19.31    1.54
   4   6  -8   22.56    1.70
  -6   4   8   18.16    1.61
   6  -6  -8    1.73    0.86
   6   6  -8    2.48    0.86
  -6   6  -8    1.69    0.97
  -6   6   8    1.68    0.94
   7   5  -8   -0.64    0.83
  -5   7  -8   -0.03    0.96
   5  -7  -8   -0.18    0.90
  -7  -5   8    0.93    0.96
   7   3  -8    0.25    0.80
  -3   7  -8    0.53    1.00
   3  -7  -8    0.07    0.86
  -7  -3   8    0.53    0.89
  -3   7   8   -1.69    0.94
   7   1  -8    9.88    1.38
   1  -7  -8    9.36    1.38
  -1   7  -8    8.69    1.61
  -7  -1   8    8.61    1.37
  -1  -7  -8   12.00    1.43
   7  -1  -8   11.71    1.33
   1   7  -8   10.99    1.67
  -7   1   8   12.01    1.46
   3   7  -8    2.59    1.10
  -3  -7  -8    1.99    0.78
   3   7  -8    3.03    0.93
   7  -3  -8    1.40    0.80
  -7   3   8    1.85    0.88
   7  -5  -8    1.14    0.70
   5   7  -8    2.07    1.17
   5   7  -8    2.52    0.96
  -7   5   8    0.73    0.89
  -7   7  -8    4.22    1.18
   7   7  -8    3.38    0.94
   7  -7  -8    4.25    0.96
  -7   7   8    4.52    1.08
  -6   8  -8    5.19    1.20
   6  -8  -8    2.30    0.86
   8   6  -8    3.49    0.93
  -8  -6   8    5.10    1.06
  -6   8   8    0.06    0.99
   8   4  -8    4.46    0.97
  -4   8  -8    4.90    1.17
   4  -8  -8    4.53    0.98
  -8  -4   8    4.04    1.00
   8   2  -8    4.79    0.89
   2  -8  -8    5.93    1.02
  -2   8  -8    6.80    1.16
  -8  -2   8    6.70    1.05
   8   0  -8    0.25    0.84
   0   8  -8    0.18    1.03
   0  -8  -8   -0.25    0.82
  -8   0   8    0.11    0.83
  -2  -8  -8    3.22    0.80
   2   8  -8    4.98    1.14
   8  -2  -8    3.71    0.84
  -8   2   8    3.33    0.93
  -4  -8  -8    0.35    0.76
   4   8  -8    0.44    1.10
   8  -4  -8    0.53    0.72
  -8   4   8    0.29    0.88
   8  -6  -8    0.20    0.76
   6   8  -8   -0.01    1.19
   6   8  -8    2.00    1.02
  -8   6   8   -0.09    0.95
   8   8  -8    8.11    1.62
   8  -8  -8    5.17    1.03
  -8   8  -8    4.33    1.24
  -7   9  -8   12.32    1.81
   9   7  -8   12.17    1.68
   7  -9  -8   11.27    1.59
  -9  -7   8   11.59    1.67
   9   5  -8   -0.36    0.91
  -5   9  -8    0.83    1.17
   5  -9  -8   -0.10    0.82
  -9  -5   8    0.45    0.99
   3  -9  -8    3.17    0.94
   9   3  -8    2.09    0.84
  -3   9  -8    3.29    1.18
  -9  -3   8    1.90    0.89
   9   1  -8   -0.39    0.77
   1  -9  -8   -0.04    0.81
  -1   9  -8    0.39    1.08
  -9  -1   8   -0.02    0.86
   9  -1  -8    5.74    0.97
   1   9  -8    5.03    1.17
  -1  -9  -8    5.46    0.98
  -9   1   8    5.73    0.99
  -3  -9  -8    0.37    0.82
   9  -3  -8    0.55    0.79
   3   9  -8    0.88    1.11
  -9   3   8    0.50    0.87
   9  -5  -8    0.27    0.85
   5   9  -8    0.23    1.15
  -9   5   8   -0.27    0.89
   9  -7  -8    1.14    0.82
   7   9  -8    0.54    1.23
  -9   7   8   -1.23    0.95
   9  -9  -8    1.25    1.05
  10   8  -8    4.43    1.08
  -8  10  -8    4.90    1.47
   8 -10  -8    4.80    1.06
 -10  -8   8    7.40    1.64
  10   6  -8   33.14    2.16
  -6  10  -8   30.89    2.32
 -10  -6   8   30.40    2.21
  10   4  -8    2.40    0.88
   4 -10  -8    2.00    0.93
  -4  10  -8    2.71    1.24
 -10  -4   8    1.66    0.99
  -2  10  -8    3.57    1.21
   2 -10  -8    1.71    0.88
  10   2  -8    3.69    0.97
 -10  -2   8    4.16    1.05
  10   0  -8    2.39    0.79
   0  10  -8    4.54    1.18
   0 -10  -8    3.94    0.93
 -10   0   8    5.45    1.03
  -2 -10  -8    0.04    0.84
  10  -2  -8    0.48    0.75
   2  10  -8   -0.61    1.08
 -10   2   8    0.75    0.92
   4  10  -8    0.78    1.15
  10  -4  -8   -0.57    0.87
 -10   4   8   -0.07    0.89
   6  10  -8    4.67    1.28
  10  -6  -8    4.24    0.98
 -10   6   8    2.71    1.04
  10  -8  -8    0.24    0.86
   8  10  -8    0.80    1.22
 -10   8   8   -1.73    0.94
  10 -10  -8    3.47    1.09
   9 -11  -8    2.95    1.06
  -9  11  -8    5.25    1.56
  11   9  -8    3.07    1.15
 -11  -9   8    4.07    1.26
  -7  11  -8    3.86    1.48
   7 -11  -8    1.67    0.99
  11   7  -8    3.69    1.09
 -11  -7   8    3.20    1.30
  11   5  -8    9.95    1.63
   5 -11  -8   10.74    1.60
  -5  11  -8   11.83    1.88
 -11  -5   8   11.44    1.66
   3 -11  -8    1.54    1.03
  -3  11  -8    1.44    1.26
  11   3  -8    2.16    0.94
 -11  -3   8    1.36    1.04
   1 -11  -8   -0.02    0.95
  11   1  -8   -0.38    0.83
  -1  11  -8   -0.10    1.22
 -11  -1   8   -0.38    0.95
   1  11  -8    0.41    1.16
  -1 -11  -8    0.04    0.93
  11  -1  -8    0.21    0.90
 -11   1   8    0.03    0.94
  11  -3  -8    8.04    1.35
   3  11  -8    8.13    1.27
 -11   3   8    7.08    1.42
   5  11  -8    0.88    1.17
  11  -5  -8    1.97    0.94
 -11   5   8    1.55    1.02
  11  -7  -8   -0.44    0.81
   7  11  -8   -0.13    1.30
  11  -9  -8    0.10    0.95
  11 -11  -8    1.66    1.12
  10 -12  -8    3.21    1.15
 -10  12  -8    5.93    1.80
 -10  12   8    2.20    1.15
   8 -12  -8    5.43    1.12
  -8  12  -8    8.58    1.82
  12   8  -8    6.67    1.22
  -8  12   8    5.13    1.67
 -12  -8   8    8.50    1.65
  12   6  -8    0.92    1.03
  -6  12  -8    3.58    1.54
   6 -12  -8    2.16    1.04
  -6  12   8   -0.39    1.16
  -4  12  -8    5.75    1.49
  12   4  -8    4.10    1.02
   4 -12  -8    6.16    1.11
 -12  -4   8    5.50    1.25
  12   2  -8    7.47    1.48
   2 -12  -8    4.97    0.99
  -2  12  -8    8.62    1.37
 -12  -2   8    7.01    1.49
   0 -12  -8    1.81    0.93
   0  12  -8    4.04    1.25
  12   0  -8    4.30    0.96
 -12   0   8    3.45    1.10
  -2 -12  -8   10.73    1.49
   2  12  -8    8.98    1.81
  12  -2  -8   10.55    1.40
 -12   2   8   10.49    1.42
  12  -4  -8    2.61    0.81
   4  12  -8    5.47    1.26
 -12   4   8    4.12    1.01
   6  12  -8    0.04    1.60
 -12   6   8   -0.77    1.06
   8  12  -8    5.03    1.37
  12  -8  -8    3.48    1.03
  12 -10  -8    1.75    1.05
  13   7  -8    2.62    1.26
  -7  13  -8    4.62    1.60
   7 -13  -8    5.15    1.11
 -13  -7   8    4.55    1.32
  -7  13   8    5.56    1.59
  13   5  -8    0.32    2.06
  -5  13  -8   -0.33    1.69
 -13  -5   8    0.14    1.18
   3 -13  -8    2.76    1.05
  13   3  -8    3.05    1.04
  -3  13  -8    4.15    1.42
   1 -13  -8    3.27    1.06
  13   1  -8    5.78    1.07
  -1  13  -8    6.79    1.34
 -13  -1   8    3.15    1.21
   1  13  -8    1.76    1.18
  13  -1  -8    1.09    0.91
  -1 -13  -8    0.23    0.98
 -13   1   8    0.90    1.04
   3  13  -8    2.06    1.71
 -13   3   8    0.68    1.17
  13  -5  -8    1.08    0.97
   5  13  -8    1.84    1.28
 -13   5   8    0.49    1.05
  13  -7  -8    2.92    0.95
   7  13  -8    5.10    1.32
  14   6  -8    0.94    1.08
  -6  14  -8    1.31    1.61
   6 -14  -8    0.69    1.11
 -14  -6   8    1.03    1.26
  -4  14  -8    2.89    1.56
  14   4  -8    0.81    1.04
   4 -14  -8    3.59    1.07
 -14  -4   8    3.93    1.32
  -2  14  -8    2.49    1.26
   2 -14  -8   -0.62    1.08
  14   2  -8    0.85    0.91
 -14  -2   8    0.22    1.16
   2  14  -8    7.08    1.31
  14  -2  -8    6.78    1.40
 -14   2   8    5.18    1.14
   4  14  -8   -0.13    1.16
  14  -4  -8    0.06    0.84
 -14   4   8   -0.62    1.04
  14  -6  -8   -0.04    0.97
   6  14  -8    0.54    1.23
 -14   6   8   -2.44    1.08
  -3  15  -8   -0.32    1.44
  15   3  -8    0.90    0.93
 -15  -3   8   -0.55    1.31
   1 -15  -8   -0.51    1.07
  15   1  -8    0.47    0.90
  -1  15  -8    1.64    1.22
 -15  -1   8    1.73    1.25
  15  -1  -8    2.21    0.85
   1  15  -8    2.47    1.23
 -15   1   8    0.53    1.13
   3  15  -8   -0.22    1.27
  15  -3  -8    0.57    0.85
 -15   3   8   -1.49    1.12
  -1   0  -9    0.87    0.92
   0   1  -9   -0.42    0.91
   1   0  -9   -0.26    0.89
   0  -1  -9   -0.01    0.94
   0  -1   9    2.50    0.92
  -1   0   9    1.60    0.94
  -2  -1  -9   19.12    1.68
  -1   2  -9   18.22    1.72
   1  -2  -9   18.56    1.73
   2   1  -9   19.57    1.71
  -1   2   9   21.74    1.71
   1  -2   9   21.14    1.68
  -2  -1   9   23.85    1.77
   1   2  -9   50.38    2.73
   2  -1  -9   52.21    2.71
  -1  -2  -9   47.58    2.73
  -2   1  -9   48.38    2.70
  -1  -2   9   54.97    2.79
  -2   1   9   51.13    2.80
  -3  -2  -9   39.35    2.32
   2  -3  -9   40.11    2.33
  -2   3  -9   38.02    2.34
   3   2  -9   41.34    2.36
  -3  -2   9   46.37    2.40
  -2   3   9   40.57    2.43
   3   0  -9    0.32    0.88
   0   3  -9    0.91    0.91
  -3   0  -9   -0.31    0.94
   0  -3  -9    0.09    0.93
  -3   0   9    0.65    0.96
  -2  -3  -9   10.32    1.41
   2   3  -9    9.92    1.49
   3  -2  -9    9.75    1.41
  -3   2  -9    7.87    1.41
  -3   2   9    9.19    1.69
  -3   4  -9    0.75    1.20
   3  -4  -9    0.81    0.82
  -3   4  -9    0.32    0.97
  -4  -3  -9    0.76    0.85
   4   3  -9    0.94    0.95
  -4  -3   9    3.03    1.01
  -3   4   9    2.21    1.00
   1  -4  -9    0.78    0.91
  -4  -1  -9    0.27    0.86
  -1   4  -9   -0.17    0.90
   4   1  -9    0.08    0.92
  -4  -1   9    0.44    0.93
  -1  -4  -9    3.13    0.85
   1   4  -9    3.84    0.98
  -4   1  -9    3.09    1.00
   4  -1  -9    2.91    0.92
  -4   1   9    4.63    1.03
   4  -3  -9   -0.25    0.92
   3   4  -9    1.73    0.94
  -3  -4  -9   -0.41    0.85
  -4   3   9   -0.17    0.94
   4  -5  -9    0.37    0.94
  -4   5  -9    0.33    1.15
   5   4  -9    0.47    0.97
  -5  -4   9    0.80    1.02
  -4   5   9   -1.67    0.99
  -2   5  -9   24.44    2.31
   2  -5  -9   31.03    1.97
  -2   5  -9   30.17    2.74
   5   2  -9   30.91    2.00
  -5  -2   9   31.34    2.04
   0   5  -9   -0.28    0.95
   0   5  -9   -1.84    1.23
   5   0  -9   -0.85    0.87
   0  -5  -9    0.00    0.86
  -5   0   9    0.33    0.94
   5  -2  -9    3.44    0.96
  -2  -5  -9    1.79    0.90
   2   5  -9    2.91    0.98
  -5   2   9    2.47    1.00
   4   5  -9    1.33    1.00
  -4  -5  -9    0.81    0.84
   5  -4  -9    1.91    0.89
  -5   4   9    0.44    1.00
   6   5  -9    0.27    1.02
   5  -6  -9    0.03    0.94
  -5   6  -9   -0.12    1.14
  -6  -5   9    0.51    0.98
  -5   6   9   -1.95    0.99
   3  -6  -9    0.71    0.87
   6   3  -9    1.46    0.92
  -3   6  -9   -0.61    1.20
  -6  -3   9    0.97    0.96
  -1   6  -9   -0.47    1.22
   1  -6  -9   -0.21    0.86
   6   1  -9    0.82    0.95
  -6  -1   9    0.18    1.01
   6  -1  -9    2.85    0.98
  -1  -6  -9    2.30    0.93
   1   6  -9    1.84    1.34
  -6   1   9    3.08    1.04
  -3  -6  -9    0.83    0.92
   3   6  -9    0.48    0.97
   6  -3  -9    0.97    0.86
  -6   3   9    0.49    0.93
   6  -5  -9    2.32    0.92
   5   6  -9    2.80    1.06
  -6   5   9    1.30    1.00
   7   6  -9    0.87    1.09
   6  -7  -9   -0.80    0.81
  -7  -6   9    0.68    1.06
   4  -7  -9    0.07    0.86
  -4   7  -9    0.64    1.21
   7   4  -9    1.83    0.99
  -7  -4   9    1.90    1.05
   2  -7  -9    2.17    0.94
  -2   7  -9    2.42    1.28
   7   2  -9    1.76    0.90
  -7  -2   9    3.37    1.09
   7   0  -9    5.50    1.02
   0   7  -9    5.69    1.39
  -7   0   9    5.36    1.11
   2   7  -9    5.63    1.44
   7  -2  -9    3.52    0.92
  -2  -7  -9    4.39    1.00
  -7   2   9    5.01    1.09
   7  -4  -9    0.95    0.86
  -7   4   9   -0.28    0.94
   6   7  -9    1.08    1.55
   7  -6  -9   -0.07    0.95
  -7   6   9   -2.19    0.96
   8   7  -9    0.84    1.12
   7  -8  -9   -0.09    0.94
  -8  -7   9    1.31    1.06
   8   5  -9    2.75    1.01
   5  -8  -9    3.06    1.09
  -5   8  -9    3.12    1.32
  -8  -5   9    2.61    1.09
  -3   8  -9   -0.28    1.27
   3  -8  -9    0.57    0.92
   8   3  -9    0.91    0.97
  -8  -3   9    0.61    1.05
  -1   8  -9   -0.29    1.25
   1  -8  -9    0.00    1.00
   8   1  -9   -0.63    0.86
  -8  -1   9   -0.82    1.00
   8  -1  -9    1.42    0.94
  -1  -8  -9    1.62    0.86
   1   8  -9    1.67    1.33
  -8   1   9    1.99    0.95
  -3  -8  -9    1.82    0.89
   8  -3  -9    1.03    0.83
   3   8  -9    2.20    1.34
  -8   3   9    0.85    0.92
   8  -5  -9    0.69    1.07
  -8   5   9   -0.72    0.94
   8  -7  -9    0.52    0.94
   8  -9  -9    0.46    0.94
  -9  -8   9    0.31    1.16
  -6   9  -9    0.89    1.31
   6  -9  -9    0.91    0.92
   9   6  -9    2.25    1.06
  -9  -6   9    1.31    1.08
  -4   9  -9    2.73    1.39
   9   4  -9    0.51    0.97
  -9  -4   9    0.86    1.76
  -2   9  -9    1.14    1.39
   9   2  -9    0.71    0.89
   2  -9  -9    0.12    1.00
  -9  -2   9    1.24    1.08
   0   9  -9    1.58    1.31
   9   0  -9    0.31    0.81
   0  -9  -9    0.91    0.94
  -9   0   9    0.46    1.00
   9  -2  -9   -0.14    0.94
  -2  -9  -9    0.17    0.86
   2   9  -9    0.52    1.35
  -9   2   9    0.10    0.94
   4   9  -9    1.53    1.85
  -9   4   9   -0.05    0.94
   9  -6  -9    1.51    0.96
   9  -8  -9    8.33    1.44
  -7  10  -9   -0.25    2.48
  10   7  -9    0.45    1.11
   7 -10  -9   -0.10    0.94
 -10  -7   9    1.29    1.20
   5 -10  -9    0.18    0.94
  10   5  -9    1.24    1.80
  -5  10  -9    0.01    1.44
 -10  -5   9   -0.53    1.17
   3 -10  -9    1.11    0.89
  -3  10  -9    2.64    1.42
  10   3  -9    1.77    1.08
 -10  -3   9    1.75    1.18
  10   1  -9    1.19    1.00
  -1  10  -9    1.34    1.35
   1  10  -9    0.53    1.49
  -1 -10  -9    1.42    1.14
 -10   1   9    0.91    1.19
  10  -3  -9   -0.07    0.78
   3  10  -9   -0.52    1.53
 -10   3   9    0.05    1.32
   5  10  -9   -0.63    1.39
  10  -5  -9    0.48    0.96
 -10   5   9   -1.09    0.95
  10  -7  -9    0.69    0.99
  -6  11  -9   -0.37    1.48
   6 -11  -9    0.08    0.94
  11   6  -9   -0.75    1.05
 -11  -6   9    0.74    1.16
  11   4  -9    0.02    1.06
  -4  11  -9    1.13    1.41
   4 -11  -9    1.11    0.99
 -11  -4   9    1.72    1.22
  -2  11  -9    2.08    1.46
   2 -11  -9    2.24    0.88
  11   2  -9    1.64    0.94
 -11  -2   9    2.95    1.19
  11   0  -9   -0.13    0.85
   0  11  -9    2.23    1.40
   0 -11  -9   -0.19    0.99
 -11   0   9    1.99    1.05
  -2 -11  -9   -0.47    0.93
  11  -2  -9    0.68    0.89
   2  11  -9    0.74    1.32
 -11   2   9   -0.08    1.04
  11  -4  -9    2.00    0.81
   4  11  -9    3.98    1.42
 -11   4   9    3.33    1.11
  11  -6  -9    8.18    1.44
   6  11  -9    5.72    1.45
   3 -12  -9   -0.22    1.03
  12   3  -9    0.22    1.02
  -3  12  -9    0.63    1.44
 -12  -3   9    0.76    1.20
  12   1  -9    1.23    0.98
   1 -12  -9    0.52    0.87
  -1  12  -9    2.77    1.39
 -12  -1   9    0.91    1.15
   1  12  -9   -0.95    1.33
  12  -1  -9    0.26    0.93
  -1 -12  -9   -0.49    0.96
 -12   1   9   -0.69    1.07
   3  12  -9   -0.32    1.23
  12  -3  -9    0.39    0.94
 -12   3   9   -0.54    1.00
   0   0 -10   -0.71    0.89
  -1  -1 -10    2.42    0.93
   1  -1 -10    1.85    1.00
   1   1 -10    2.51    1.03
  -1   1 -10    2.07    0.98
  -1  -1  10    3.78    1.08
   2   0 -10    0.56    1.02
  -2   0 -10   -1.57    0.98
   0   2 -10   -0.98    0.99
   0  -2 -10   -0.16    0.89
  -2   0  10    1.17    1.03
  -2   2 -10    0.51    1.05
   2   2 -10    2.22    1.05
   2  -2 -10    2.01    1.01
  -2  -2 -10    0.61    0.94
  -2  -2  10    3.04    1.07
  -1   3 -10    1.64    1.03
  -3  -1 -10    0.88    0.97
   1  -3 -10    3.47    1.27
   3   1 -10    4.00    1.08
  -3  -1  10    3.61    1.17
  -1  -3 -10    4.89    1.05
  -3   1 -10    2.54    1.06
   3  -1 -10    4.70    1.03
   1   3 -10    2.42    1.08
  -3   1  10    7.20    1.46
   3  -3 -10    4.43    1.39
   3   3 -10    5.55    1.11
  -3  -3  10    9.50    1.61
   4   2 -10    1.45    1.00
   2  -4 -10    0.83    0.91
  -4  -2  10    2.90    1.11
   0   4 -10    0.12    1.00
   4   0 -10    1.09    1.09
   0  -4 -10   -0.55    1.13
  -4   0  10    0.22    1.05
   4  -2 -10    0.76    1.04
  -2  -4 -10   -0.78    1.05
   2   4 -10   -0.24    1.04
  -4   2  10   -0.03    1.02
   4  -4 -10    2.46    1.02
   4   4 -10    3.05    1.08
  -4   4  10    1.34    1.19
  -4  -4  10    3.60    1.20
   3  -5 -10    3.41    1.04
  -5  -3  10    3.58    1.20
   1  -5 -10   10.69    1.57
  -5  -1  10   15.21    2.25
   5  -1 -10    4.61    1.16
  -1  -5 -10    2.94    0.95
  -5   1  10    3.99    1.03
   3   5 -10   -0.96    1.51
  -3  -5 -10    0.07    0.87
   5  -3 -10    0.32    0.98
  -5   3  10   -0.43    1.06
  -3  -5  10    3.66    1.24
   5  -5 -10    0.33    0.91
  -5  -5  10    2.60    1.07
   4  -6 -10    1.88    1.01
   6   4 -10    1.22    1.09
  -6  -4  10    3.01    1.17
   6   2 -10    6.67    1.15
   2  -6 -10    4.76    1.05
  -6  -2  10    4.50    1.15
   0  -6 -10   10.60    1.45
   6   0 -10   12.39    1.59
  -6   0  10   11.85    1.67
   6  -2 -10    3.68    0.99
  -2  -6 -10    2.10    0.94
  -6   2  10    3.50    1.82
   6  -4 -10    7.34    1.47
  -6   4  10    6.78    1.30
   6  -6 -10    4.64    1.06
  -6  -6  10    8.81    1.49
   5  -7 -10    0.82    1.00
   7   5 -10    2.75    1.17
   7   3 -10    4.98    1.15
   3  -7 -10    5.89    1.07
  -3   7 -10    0.94    1.76
  -7  -3  10    3.29    1.14
   1  -7 -10    1.31    0.77
  -1   7 -10    1.38    1.61
   7   1 -10    1.83    1.06
  -7  -1  10    3.01    1.07
   7  -1 -10    0.84    0.96
  -1  -7 -10    0.60    0.79
  -7   1  10    0.75    0.97
   7  -3 -10    7.03    1.14
   7  -5 -10   11.39    1.47
  -2   8 -10   -2.97    1.54
   8   2 -10    0.81    1.06
   2  -8 -10    0.52    0.75
  -8  -2  10    1.37    1.12
   0  -8 -10    0.15    0.95
   8   0 -10    0.22    0.94
   0   8 -10   -0.46    1.57
  -8   0  10    0.37    1.05
   8  -2 -10    1.96    0.92
  -2  -8 -10    3.75    0.98
  -8   2  10    1.19    0.99
   0   0   0    0.00    0.00
;
_shelx_hkl_checksum               39390
_olex2_submission_special_instructions 'No special instructions were received'
