data_COF300
_audit_creation_date              2018-03-18
_audit_creation_method
;
Olex2 1.2
(compiled 2017.08.10 svn.r3458 for OlexSys, GUI svn.r5381)
;
_shelx_SHELXL_version_number      '2014/7'
_publ_contact_author_address      ?
_publ_contact_author_email        ?
_publ_contact_author_id_orcid     ?
_publ_contact_author_name         ''
_publ_contact_author_phone        ?
_publ_section_references
;
Dolomanov, O.V., Bourhis, L.J., Gildea, R.J, Howard, J.A.K. & Puschmann, H.
 (2009), J. Appl. Cryst. 42, 339-341.

Sheldrick, G.M. (2008). Acta Cryst. A64, 112-122.
;
_chemical_name_common             'COF-300'
_chemical_name_systematic         ?
_chemical_formula_moiety          'C41 H28 N4'
_chemical_formula_sum             'C41 H28 N4'
_chemical_formula_weight          576.67
_chemical_melting_point           ?
loop_
  _atom_type_symbol
  _atom_type_description
  _atom_type_scat_dispersion_real
  _atom_type_scat_dispersion_imag
  _atom_type_scat_source
 'C' 'C' 0.0033 0.0016 'International Tables Vol C Tables 4.2.6.8 and 6.1.1.4'
 'H' 'H' 0.0000 0.0000 'International Tables Vol C Tables 4.2.6.8 and 6.1.1.4'
 'N' 'N' 0.0061 0.0033 'International Tables Vol C Tables 4.2.6.8 and 6.1.1.4'
 'O' 'O' 0.0106 0.0060 'International Tables Vol C Tables 4.2.6.8 and 6.1.1.4'

_shelx_space_group_comment
;
The symmetry employed for this shelxl refinement is uniquely defined
by the following loop, which should always be used as a source of
symmetry information in preference to the above space-group names.
They are only intended as comments.
;
_space_group_crystal_system       'tetragonal'
_space_group_IT_number            88
_space_group_name_H-M_alt         'I 41/a'
_space_group_name_Hall            '-I 4ad'
loop_
  _space_group_symop_operation_xyz
 'x, y, z'
 '-x+1/2, -y, z+1/2'
 '-y+3/4, x+1/4, z+1/4'
 'y+3/4, -x+3/4, z+3/4'
 'x+1/2, y+1/2, z+1/2'
 '-x+1, -y+1/2, z+1'
 '-y+5/4, x+3/4, z+3/4'
 'y+5/4, -x+5/4, z+5/4'
 '-x, -y, -z'
 'x-1/2, y, -z-1/2'
 'y-3/4, -x-1/4, -z-1/4'
 '-y-3/4, x-3/4, -z-3/4'
 '-x+1/2, -y+1/2, -z+1/2'
 'x, y+1/2, -z'
 'y-1/4, -x+1/4, -z+1/4'
 '-y-1/4, x-1/4, -z-1/4'

_cell_length_a                    26.2260(18)
_cell_length_b                    26.2260(18)
_cell_length_c                    7.5743(10)
_cell_angle_alpha                 90
_cell_angle_beta                  90
_cell_angle_gamma                 90
_cell_volume                      5209.6(10)
_cell_formula_units_Z             4
_cell_measurement_temperature     99.9(3)
_cell_measurement_reflns_used     1488
_cell_measurement_theta_max       20.0840
_cell_measurement_theta_min       3.4700

_exptl_crystal_description        'needle'
_exptl_crystal_colour             'colorless'
_exptl_crystal_density_meas       ?
_exptl_crystal_density_method     ?
_exptl_crystal_density_diffrn     0.735
_exptl_crystal_F_000              1208.0
_exptl_crystal_size_max           0.06
_exptl_crystal_size_mid           0.05
_exptl_crystal_size_min           0.02
_exptl_absorpt_coefficient_mu     0.044
_shelx_estimated_absorpt_T_max    ?
_shelx_estimated_absorpt_T_min    ?
_exptl_absorpt_correction_type    'multi-scan'
_exptl_absorpt_correction_T_max   1.00000
_exptl_absorpt_correction_T_min   0.73729

_exptl_absorpt_process_details    
;
CrysAlisPro 1.171.39.20a (Rigaku Oxford Diffraction, 2015)
Empirical absorption correction using spherical harmonics,
 implemented in SCALE3 ABSPACK scaling algorithm.
;
_oxdiff_exptl_absorpt_empirical_full_min           0.807
_oxdiff_exptl_absorpt_empirical_full_max           1.288
_oxdiff_exptl_absorpt_empirical_details
;
Empirical correction (ABSPACK) includes:
- Absorption correction using spherical harmonics
- Frame scaling
;
_diffrn_ambient_temperature       99.9(3)
_diffrn_radiation_wavelength      0.71073
_diffrn_radiation_type            'Mo K\a'
_diffrn_source                    'fine-focus sealed X-ray tube'
_diffrn_source_type               'Enhance (Mo) X-ray Source'
_diffrn_radiation_monochromator	   'graphite'
_diffrn_measurement_device 'four-circle diffractometer'
_diffrn_measurement_device_type   'XtaLAB Pro: Kappa single' 

_diffrn_reflns_number             28014
_diffrn_reflns_av_unetI/netI      0.1001
_diffrn_reflns_av_R_equivalents   0.1857
_diffrn_reflns_limit_h_max        29
_diffrn_reflns_limit_h_min        -30
_diffrn_reflns_limit_k_max        29
_diffrn_reflns_limit_k_min        -30
_diffrn_reflns_limit_l_max        8
_diffrn_reflns_limit_l_min        -8
_diffrn_reflns_theta_full         24.727
_diffrn_reflns_theta_max          24.727
_diffrn_reflns_theta_min          3.474
_diffrn_measured_fraction_theta_full 0.948
_diffrn_measured_fraction_theta_max 0.948
_diffrn_reflns_Laue_measured_fraction_full 0.948
_diffrn_reflns_Laue_measured_fraction_max 0.948
_diffrn_reflns_point_group_measured_fraction_full 0.948
_diffrn_reflns_point_group_measured_fraction_max 0.948
_reflns_number_total              2230
_reflns_number_gt                 976

_reflns_threshold_expression      'I > 2\s(I)'

_reflns_Friedel_coverage          0.000
_reflns_Friedel_fraction_full     .
_reflns_Friedel_fraction_max      .


_reflns_special_details
;
 Reflections were merged by SHELXL according to the crystal
 class for the calculation of statistics and refinement.
 
 Structure factors included contributions from the .fab file.
 
 _reflns_Friedel_fraction is defined as the number of unique
 Friedel pairs measured divided by the number that would be
 possible theoretically, ignoring centric projections and
 systematic absences.
;
_computing_cell_refinement        'CrysAlisPro 1.171.39.20a (Rigaku OD, 2015)'
_computing_data_collection        'CrysAlisPro 1.171.39.20a (Rigaku OD, 2015)'
_computing_data_reduction         'CrysAlisPro 1.171.39.20a (Rigaku OD, 2015)'
_computing_molecular_graphics     'Olex2 (Dolomanov et al., 2009)'
_computing_publication_material   'Olex2 (Dolomanov et al., 2009)'
_computing_structure_solution     'SHELXS-2014/7 (Sheldrick, 2015)'
_computing_structure_refinement   'SHELXL-2014/7 (Sheldrick, 2015)'

_refine_diff_density_max          0.146
_refine_diff_density_min          -0.133
_refine_diff_density_rms          0.028

_refine_ls_extinction_coef        .
_refine_ls_extinction_method      none
_refine_ls_goodness_of_fit_ref    0.973
_refine_ls_hydrogen_treatment     constr
_refine_ls_matrix_type            full
_refine_ls_number_parameters      102
_refine_ls_number_reflns          2115
_refine_ls_number_restraints      0
_refine_ls_R_factor_all           0.1324
_refine_ls_R_factor_gt            0.0614
_refine_ls_restrained_S_all       0.973
_refine_ls_shift/su_max           0.000
_refine_ls_shift/su_mean          0.000
_refine_ls_structure_factor_coef  Fsqd
_refine_ls_weighting_details
'w=1/[\s^2^(Fo^2^)+(0.0870P)^2^] where P=(Fo^2^+2Fc^2^)/3'
_refine_ls_weighting_scheme       calc
_refine_ls_wR_factor_gt           0.1541
_refine_ls_wR_factor_ref          0.1792
_refine_special_details           ?
_olex2_refinement_description
;
1. Fixed Uiso
 At 1.2 times of:
  All C(H) groups
2.a Aromatic/amide H refined with riding coordinates:
 C004(H004), C005(H005), C007(H007), C008(H008), C00A(H00A), C00B(H00B),
 C00C(H00C)
;

# start Validation Reply Form
_vrf_RINTA01_COF300
;
PROBLEM: The value of Rint is greater than 0.18
RESPONSE: The crystal is small. Thus, much better data was collected using synchrotron radiation. 
;
_vrf_PLAT029_COF300
;
PROBLEM: _diffrn_measured_fraction_theta_full value Low .      0.948 Why?  
RESPONSE: The crystal is small. Thus, much better data was collected using synchrotron radiation. 
;
_vrf_PLAT230_COF300
;
PROBLEM: Hirshfeld Test Diff for   N003     --C00A      .        7.7 s.u.  
RESPONSE: Large magnitude along imine bond of this COF is due to linker flexibility.
;
# end Validation Reply Form

_atom_sites_solution_hydrogens    mixed
_atom_sites_solution_primary      direct
_atom_sites_solution_secondary    difmap
loop_
  _atom_site_label
  _atom_site_type_symbol
  _atom_site_fract_x
  _atom_site_fract_y
  _atom_site_fract_z
  _atom_site_U_iso_or_equiv
  _atom_site_adp_type
  _atom_site_occupancy
  _atom_site_site_symmetry_order
  _atom_site_calc_flag
  _atom_site_refinement_flags_posn
  _atom_site_refinement_flags_adp
  _atom_site_refinement_flags_occupancy
  _atom_site_disorder_assembly
  _atom_site_disorder_group
 C001 C 0.45336(9) 0.24465(10) -0.0014(3) 0.0500(7) Uani 1 1 d . . . . .
 C002 C 0.5000 0.2500 -0.1250 0.0475(13) Uani 1 4 d S T P . .
 N003 N 0.32911(10) 0.23528(10) 0.3510(4) 0.0802(8) Uani 1 1 d . . . . .
 C004 C 0.41940(10) 0.20496(10) -0.0046(4) 0.0565(8) Uani 1 1 d . . . . .
 H004 H 0.4235 0.1792 -0.0877 0.068 Uiso 1 1 calc R . . . .
 C005 C 0.37901(11) 0.20239(11) 0.1130(4) 0.0644(8) Uani 1 1 d . . . . .
 H005 H 0.3560 0.1754 0.1062 0.077 Uiso 1 1 calc R . . . .
 C006 C 0.37271(10) 0.23917(12) 0.2388(4) 0.0639(8) Uani 1 1 d . . . . .
 C007 C 0.44659(11) 0.28160(11) 0.1284(4) 0.0625(8) Uani 1 1 d . . . . .
 H007 H 0.4698 0.3084 0.1355 0.075 Uiso 1 1 calc R . . . .
 C008 C 0.40700(11) 0.27990(11) 0.2460(4) 0.0661(9) Uani 1 1 d . . . . .
 H008 H 0.4030 0.3055 0.3296 0.079 Uiso 1 1 calc R . . . .
 C009 C 0.29011(12) 0.25133(13) 0.6331(5) 0.0797(10) Uani 1 1 d . . . . .
 C00A C 0.33309(12) 0.25192(13) 0.5050(5) 0.0823(10) Uani 1 1 d . . . . .
 H00A H 0.3643 0.2653 0.5410 0.099 Uiso 1 1 calc R . . . .
 C00B C 0.29867(13) 0.26501(14) 0.8044(5) 0.0918(11) Uani 1 1 d . . . . .
 H00B H 0.3309 0.2755 0.8402 0.110 Uiso 1 1 calc R . . . .
 C00C C 0.24129(13) 0.23692(14) 0.5750(4) 0.0913(11) Uani 1 1 d . . . . .
 H00C H 0.2358 0.2288 0.4570 0.110 Uiso 1 1 calc R . . . .

loop_
  _atom_site_aniso_label
  _atom_site_aniso_U_11
  _atom_site_aniso_U_22
  _atom_site_aniso_U_33
  _atom_site_aniso_U_23
  _atom_site_aniso_U_13
  _atom_site_aniso_U_12
 C001 0.0522(16) 0.0508(16) 0.0470(16) -0.0010(14) -0.0013(13) 0.0004(14)
 C002 0.0492(19) 0.0492(19) 0.044(3) 0.000 0.000 0.000
 N003 0.0688(18) 0.101(2) 0.0710(19) 0.0038(16) 0.0061(16) 0.0058(14)
 C004 0.0563(17) 0.0566(17) 0.0565(18) -0.0033(14) 0.0010(15) -0.0011(14)
 C005 0.0596(19) 0.066(2) 0.068(2) 0.0054(17) 0.0034(17) -0.0053(15)
 C006 0.0567(19) 0.080(2) 0.0553(19) 0.0110(17) 0.0138(16) 0.0081(17)
 C007 0.0630(19) 0.0647(19) 0.0599(19) -0.0075(16) 0.0105(15) -0.0042(15)
 C008 0.074(2) 0.0644(19) 0.0600(19) -0.0063(15) 0.0132(18) -0.0035(17)
 C009 0.060(2) 0.108(3) 0.072(2) 0.0215(19) 0.0101(19) 0.0208(18)
 C00A 0.057(2) 0.103(3) 0.086(3) 0.020(2) -0.001(2) -0.0022(17)
 C00B 0.068(2) 0.134(3) 0.073(2) 0.022(2) 0.007(2) 0.011(2)
 C00C 0.066(2) 0.138(3) 0.070(2) 0.019(2) 0.006(2) 0.005(2)

_geom_special_details
;
 All esds (except the esd in the dihedral angle between two l.s. planes)
 are estimated using the full covariance matrix.  The cell esds are taken
 into account individually in the estimation of esds in distances, angles
 and torsion angles; correlations between esds in cell parameters are only
 used when they are defined by crystal symmetry.  An approximate (isotropic)
 treatment of cell esds is used for estimating esds involving l.s. planes.
;
loop_
  _geom_bond_atom_site_label_1
  _geom_bond_atom_site_label_2
  _geom_bond_distance
  _geom_bond_site_symmetry_2
  _geom_bond_publ_flag
 C001 C002 1.547(3) . ?
 C001 C004 1.370(3) . ?
 C001 C007 1.392(4) . ?
 C002 C001 1.547(3) 6_554 ?
 C002 C001 1.547(3) 11_665 ?
 C002 C001 1.547(3) 16_655 ?
 N003 C006 1.429(4) . ?
 N003 C00A 1.249(4) . ?
 C004 H004 0.9300 . ?
 C004 C005 1.386(4) . ?
 C005 H005 0.9300 . ?
 C005 C006 1.366(4) . ?
 C006 C008 1.397(4) . ?
 C007 H007 0.9300 . ?
 C007 C008 1.368(4) . ?
 C008 H008 0.9300 . ?
 C009 C00A 1.488(4) . ?
 C009 C00B 1.365(4) . ?
 C009 C00C 1.406(4) . ?
 C00A H00A 0.9300 . ?
 C00B H00B 0.9300 . ?
 C00B C00C 1.391(4) 13_556 ?
 C00C C00B 1.391(4) 13_556 ?
 C00C H00C 0.9300 . ?

loop_
  _geom_angle_atom_site_label_1
  _geom_angle_atom_site_label_2
  _geom_angle_atom_site_label_3
  _geom_angle
  _geom_angle_site_symmetry_1
  _geom_angle_site_symmetry_3
  _geom_angle_publ_flag
 C004 C001 C002 124.9(2) . . ?
 C004 C001 C007 117.3(2) . . ?
 C007 C001 C002 117.7(2) . . ?
 C001 C002 C001 105.49(18) 6_554 . ?
 C001 C002 C001 105.49(18) 16_655 11_665 ?
 C001 C002 C001 111.50(9) 6_554 11_665 ?
 C001 C002 C001 111.50(9) 16_655 . ?
 C001 C002 C001 111.50(10) 6_554 16_655 ?
 C001 C002 C001 111.50(9) 11_665 . ?
 C00A N003 C006 117.6(3) . . ?
 C001 C004 H004 119.3 . . ?
 C001 C004 C005 121.5(3) . . ?
 C005 C004 H004 119.3 . . ?
 C004 C005 H005 119.8 . . ?
 C006 C005 C004 120.4(3) . . ?
 C006 C005 H005 119.8 . . ?
 C005 C006 N003 117.5(3) . . ?
 C005 C006 C008 119.3(3) . . ?
 C008 C006 N003 123.1(3) . . ?
 C001 C007 H007 118.9 . . ?
 C008 C007 C001 122.3(3) . . ?
 C008 C007 H007 118.9 . . ?
 C006 C008 H008 120.4 . . ?
 C007 C008 C006 119.2(3) . . ?
 C007 C008 H008 120.4 . . ?
 C00B C009 C00A 119.5(3) . . ?
 C00B C009 C00C 121.2(3) . . ?
 C00C C009 C00A 119.2(3) . . ?
 N003 C00A C009 122.8(3) . . ?
 N003 C00A H00A 118.6 . . ?
 C009 C00A H00A 118.6 . . ?
 C009 C00B H00B 120.3 . . ?
 C009 C00B C00C 119.4(3) . 13_556 ?
 C00C C00B H00B 120.3 13_556 . ?
 C009 C00C H00C 120.3 . . ?
 C00B C00C C009 119.3(3) 13_556 . ?
 C00B C00C H00C 120.3 13_556 . ?

_smtbx_masks_special_details      ?
loop_
  _smtbx_masks_void_nr
  _smtbx_masks_void_average_x
  _smtbx_masks_void_average_y
  _smtbx_masks_void_average_z
  _smtbx_masks_void_volume
  _smtbx_masks_void_count_electrons
  _smtbx_masks_void_content
 1 0.250 0.000 -0.806 673.5 48.4 ?
 2 0.250 0.500 -0.038 673.5 48.4 ?
 3 0.750 0.000 -0.996 673.5 48.4 ?
 4 0.750 0.500 -0.284 673.5 48.4 ?

_shelx_res_file
;
    300-yibc.res created by SHELXL-2014/7

TITL 300-yibc_a.res in I4(1)/a
REM Old TITL 300-yibc in I41/a #88
REM SHELXT solution in I4(1)/a
REM R1 0.272, Rweak 0.038, Alpha 0.050, Orientation as input
REM Formula found by SHELXT: C44 N
CELL 0.71073 26.226 26.226 7.5743 90 90 90
ZERR 97 0.0018 0.0018 0.001 0 0 0
LATT 2
SYMM 0.5-X,-Y,0.5+Z
SYMM 0.75-Y,0.25+X,0.25+Z
SYMM 0.75+Y,0.75-X,0.75+Z
SFAC C H N O
UNIT 97 97 97 97

L.S. 10
PLAN  20
BOND $H
list 4
fmap 2
ABIN
acta
REM <olex2.extras>
REM <HklSrc "%.\\300-yibc.hkl">
REM </olex2.extras>

WGHT    0.087000
FVAR       0.30345
C001  1    0.453363    0.244655   -0.001375    11.00000    0.05215    0.05075 =
         0.04698   -0.00100   -0.00131    0.00043
C002  1    0.500000    0.250000   -0.125000    10.25000    0.04920    0.04920 =
         0.04397    0.00000    0.00000    0.00000
N003  3    0.329114    0.235280    0.351048    11.00000    0.06883    0.10081 =
         0.07095    0.00380    0.00613    0.00583
C004  1    0.419398    0.204959   -0.004644    11.00000    0.05628    0.05665 =
         0.05649   -0.00330    0.00102   -0.00106
AFIX  43
H004  2    0.423549    0.179164   -0.087663    11.00000   -1.20000
AFIX   0
C005  1    0.379008    0.202387    0.112959    11.00000    0.05955    0.06555 =
         0.06816    0.00536    0.00345   -0.00531
AFIX  43
H005  2    0.356037    0.175443    0.106196    11.00000   -1.20000
AFIX   0
C006  1    0.372713    0.239171    0.238755    11.00000    0.05674    0.07975 =
         0.05530    0.01099    0.01378    0.00811
C007  1    0.446588    0.281602    0.128414    11.00000    0.06297    0.06468 =
         0.05990   -0.00752    0.01046   -0.00423
AFIX  43
H007  2    0.469759    0.308367    0.135496    11.00000   -1.20000
AFIX   0
C008  1    0.407001    0.279899    0.245972    11.00000    0.07405    0.06439 =
         0.05997   -0.00634    0.01319   -0.00351
AFIX  43
H008  2    0.402967    0.305536    0.329645    11.00000   -1.20000
AFIX   0
C009  1    0.290114    0.251330    0.633135    11.00000    0.05971    0.10754 =
         0.07195    0.02151    0.01008    0.02083
C00A  1    0.333089    0.251923    0.504958    11.00000    0.05740    0.10311 =
         0.08632    0.01960   -0.00121   -0.00218
AFIX  43
H00A  2    0.364257    0.265260    0.540966    11.00000   -1.20000
AFIX   0
C00B  1    0.298672    0.265010    0.804440    11.00000    0.06816    0.13434 =
         0.07289    0.02182    0.00686    0.01098
AFIX  43
H00B  2    0.330923    0.275528    0.840215    11.00000   -1.20000
AFIX   0
C00C  1    0.241285    0.236920    0.574951    11.00000    0.06551    0.13805 =
         0.07048    0.01937    0.00564    0.00546
AFIX  43
H00C  2    0.235755    0.228758    0.457008    11.00000   -1.20000
AFIX   0
HKLF 4

REM  300-yibc_a.res in I4(1)/a
REM R1 =  0.0614 for     976 Fo > 4sig(Fo)  and  0.1324 for all    2115 data
REM    102 parameters refined using      0 restraints

END

WGHT      0.0871      0.0000

REM Highest difference peak  0.146,  deepest hole -0.133,  1-sigma level  0.028
Q1    1   0.2029  0.2089  0.5049  11.00000  0.05    0.15
Q2    1   0.5000  0.2500  0.3080  10.50000  0.05    0.14
Q3    1   0.3420  0.2114 -0.0298  11.00000  0.05    0.13
Q4    1   0.3217  0.3100  0.8520  11.00000  0.05    0.11
Q5    1   0.4094  0.2215  0.3602  11.00000  0.05    0.11
Q6    1   0.3763  0.2527  0.1606  11.00000  0.05    0.11
Q7    1   0.4067  0.2342  0.2428  11.00000  0.05    0.11
Q8    1   0.3213  0.2522  0.1220  11.00000  0.05    0.11
Q9    1   0.2807  0.2241  0.7367  11.00000  0.05    0.10
Q10   1   0.2697  0.2461  0.2775  11.00000  0.05    0.10
Q11   1   0.3051  0.2936  0.6886  11.00000  0.05    0.10
Q12   1   0.3985  0.2429  0.3051  11.00000  0.05    0.10
Q13   1   0.4460  0.1588 -0.1234  11.00000  0.05    0.10
Q14   1   0.4562  0.3120  0.4665  11.00000  0.05    0.09
Q15   1   0.3142  0.2124  0.2706  11.00000  0.05    0.09
Q16   1   0.3633  0.2328  0.4223  11.00000  0.05    0.09
Q17   1   0.3615  0.2659  0.9706  11.00000  0.05    0.09
Q18   1   0.3478  0.2283  0.8081  11.00000  0.05    0.09
Q19   1   0.4441  0.1403  0.0123  11.00000  0.05    0.08
Q20   1   0.2837  0.1935  0.3384  11.00000  0.05    0.08
;
_shelx_res_checksum               96033
_shelx_hkl_file
;
   0   0  -2   -9.75    9.86
   0   0   2   -4.22    9.68
   0   0  -2   -6.04    5.80
   0   0   2   -9.17    5.98
   0   0   4    0.21    6.81
   0   0   4   -3.22   12.58
   0   0  -4   14.49   12.17
   0   0   6   -6.52    9.05
   0   0  -6  -11.31   11.27
   0   0   6  -13.78   17.25
   0   0  -6   -0.67   14.91
  -1   0   3   33.03   11.77
   1   0  -3   39.87   11.43
   0   1   3   76.17    8.19
   1   0   3   74.69   12.78
  -1   0   3   47.46    7.54
  -1   0  -3   54.84    7.56
   0   1  -3   68.38   11.19
   1   0   3   45.17    7.17
  -1   0  -3   41.55   11.97
   0  -1   3   63.24    6.60
   0  -1  -3   65.17    8.11
   0  -1   3   51.31   12.04
   0   1   3   68.53   12.64
   0  -1  -3   65.79   12.34
   0   1  -3   42.27    9.75
   1   0  -5  -11.01    9.62
   0  -1   5   12.79   13.64
   1   0   5   13.12   13.27
  -1   0  -5    4.12   10.83
  -1   0   5   16.06    7.55
   0   1   5   14.28    8.53
   1   0   5    1.06    7.66
   0  -1  -5   13.93   12.81
   0  -1   5   10.17    7.14
  -1   0   5    1.75   13.46
   0   1  -5   14.09   10.66
  -1   0  -5   11.24   12.69
   1   0  -5   16.28   11.97
   0   1   5   30.51   14.34
   0   1  -5   17.05   12.56
   1   0  -7   15.07   11.98
   0  -1  -7   16.21   12.07
   0  -1  -7    5.55   16.99
  -1   0  -7   13.63   13.10
   0  -1   7    1.94    9.58
   0  -1   7   20.57   18.95
  -1   0  -7   -5.59   16.87
   0   1  -7    3.15   17.43
   1   0   7   16.70   10.22
   1   0  -7   12.70   11.12
   1   0  -7   16.39   17.08
   1   0   7   41.87   19.14
   0  -1  -7    3.95   12.26
   0   1   7   24.55   10.45
  -1   0   7   20.54   18.57
   0   1   7   20.90   19.48
  -1   0   7   13.15   10.30
   0   1  -7   -2.45   12.58
   1   1  -2  383.35   21.45
  -1   1  -2  364.42   21.47
   1   1   2  385.55   19.96
  -1   1  -2  367.77   19.38
   1   1  -2  392.60   20.50
  -1  -1   2  382.35   19.60
   1  -1  -2  373.09   22.01
  -1  -1  -2  412.34   20.16
  -1   1   2  387.24   21.94
  -1   1   2  380.71   20.53
  -1   1  -2  356.48   21.73
  -1  -1   2  372.40   21.57
   1  -1   2  349.43   19.43
   1  -1   4    2.31   12.14
   1   1   4   -1.43   13.11
   1  -1  -4   11.77   12.42
   1   1  -4    4.29    9.45
  -1  -1   4   10.28   12.43
   1   1   4    1.18    7.55
   1  -1   4   -0.56    6.55
  -1  -1  -4  -10.83   11.71
  -1  -1   4   -0.56    6.29
  -1   1  -4    5.78   12.24
  -1   1   4    2.90    7.58
  -1  -1  -4    6.86    7.98
  -1   1  -4    8.75   10.51
  -1   1   4  -16.76   12.63
   1   1  -4    2.98   11.90
  -1  -1   6   37.68   17.00
  -1  -1  -6   10.92   15.28
   1  -1   6   21.72   16.82
   1   1  -6   28.32   15.37
   1  -1  -6   38.48   15.68
  -1   1   6   23.95    9.70
   1   1  -6   34.58   11.59
   1  -1  -6   23.00   10.28
   1  -1   6   18.97    8.58
  -1  -1  -6    9.52   12.15
   1  -1  -6    7.27   10.93
  -1  -1   6   16.43    8.41
  -1   1  -6   30.08   12.39
  -1   1  -6   27.08   16.13
   1   1   6  -11.83   16.03
   1   1   6   11.02    9.70
  -1   1   6   18.13   16.18
  -1  -1   8    8.90   20.21
  -1   1   8  -14.49   18.09
  -1  -1   8   -9.88   17.75
  -2   1  -3   37.11   11.08
  -1  -2  -3   13.59    7.95
  -2   1   3   27.64   11.98
   1   2  -3   24.91   10.74
  -2   1  -3   27.85   11.33
   1   2   3   24.31    8.07
   2  -1   3   22.10    6.60
   2  -1  -3   25.13   11.59
   2  -1   3   31.91   11.68
  -1  -2   3   21.27    5.78
  -1  -2   3   27.56   11.69
  -2   1   3    5.72    8.57
   1   2  -3   20.75    9.37
  -2   1  -3   25.58    6.32
  -1  -2  -3   24.60   12.13
   1   2  -5    5.94   12.19
   2  -1  -5   19.48   12.91
   1   2   5    0.32    8.73
  -2   1   5   14.68   14.02
   2  -1  -5   21.26    8.26
  -1  -2   5    3.03    6.44
  -1  -2  -5   24.51   12.98
   2  -1   5    7.80   13.83
  -2   1  -5   -5.38   11.60
   2  -1   5    8.94    7.72
  -1  -2   5   18.18   13.67
  -2   1   5   -0.30    8.27
   1   2   5    4.29   14.19
   1   2  -5    5.41    9.93
  -2   1  -5   12.02   13.54
   1   2   7  -12.40   19.11
  -1  -2   7   -3.12    8.70
  -2   1  -7   -3.92   13.43
   2  -1  -7   -2.96   11.43
  -2   1  -7   27.64   17.77
   1   2  -7  -11.65   17.12
  -1  -2  -7  -10.82   12.58
  -1  -2  -7   -4.03   18.16
  -2   1   7   -7.71   18.70
   1   2  -7  -21.19   12.36
   2  -1   7   14.92    9.98
  -1  -2   7   10.09   18.82
  -2   1   7   -5.03   10.38
   1   2   7   20.47   11.47
  -2   1   7   13.24   16.03
  -1  -2  -7   13.58   13.02
   2  -1  -7   13.49   10.74
   2  -1   7    6.97   18.50
   2  -1  -7  -16.26   16.96
   0  -2   2   16.44    3.67
   0  -2  -2   18.26   10.38
   0   2  -2   28.20    9.37
   0  -2  -2   20.70    7.44
  -2   0  -2   22.96    6.07
   0  -2   2   25.29   10.02
   2   0   2   11.16    6.26
   2   0  -2   19.68    9.51
  -2   0   2   14.13   10.46
   0   2  -2   19.06    9.69
   0  -2  -2   15.14    7.70
   0   2   2   10.80    7.27
   0  -2   4  114.41   14.27
   0   2  -4   89.88   11.78
  -2   0   4  114.75    9.80
  -2   0   4  105.19   14.06
  -2   0  -4  129.04    9.86
  -2   0  -4  114.09   14.02
   2   0  -4   90.26   10.65
   0  -2  -4  120.01   14.38
   2   0  -4  100.61   14.13
   0   2   4  114.53   10.56
   0  -2   4  105.58    8.49
   0   2   4  110.95   15.01
   0   2  -4  111.34   14.09
   2   0   4  117.85   14.96
   2   0   4  101.04    9.75
   0   2  -6  -10.71   12.19
   0  -2   6   12.07   16.13
   2   0  -6    5.15   10.18
   0  -2  -6   -2.72   15.71
   0   2   6   16.27   15.95
  -2   0   6  -10.24    8.91
   2   0   6    9.60   16.90
  -2   0  -6   22.13   15.11
   2   0   6   22.15    9.86
   2   0  -6   -6.92    9.48
   2   0  -6   27.98   15.18
   0  -2  -6   -4.22   10.99
   0   2   6    4.78    9.76
   0   2  -6  -17.35   15.01
  -2   0   6   12.09   16.97
   0  -2   6    1.99    7.79
  -2   0  -6    8.10   12.45
  -2   0   8  121.63   22.85
  -2   0   8  133.91   20.95
  -2  -1  -3   64.74    8.30
  -1   2   3   51.90    8.88
   1  -2  -3   53.77    8.77
  -1   2  -3   66.86   12.50
  -2  -1   3   51.04   12.03
  -1   2   3   96.66   12.91
   1  -2   3   50.57    6.39
  -1   2  -3   61.32   11.61
   2   1  -3   59.65   11.38
   1  -2  -3   57.20   12.76
   2   1  -3   50.99    8.70
   2   1   3   58.01    8.45
   1  -2   3   73.19   12.89
  -1   2  -3   60.55    6.38
  -2  -1   3   67.20    7.79
  -1   2   5    3.01   13.78
  -1   2  -5  -27.39   12.77
   1  -2   5   -7.36    6.93
   2   1   5   19.51   13.55
   2   1  -5    0.96    9.34
   1  -2   5  -31.61   14.43
  -2  -1  -5   -1.15   13.61
   1  -2  -5   -7.25    9.01
  -2  -1   5   36.88   14.65
  -1   2  -5   13.92   11.40
   2   1  -5    2.13   12.75
   1  -2  -5    5.00   12.83
  -2  -1   5   -1.67    7.18
  -1   2   5   -6.32    8.19
  -2  -1  -5  -11.97    8.78
   2   1   5   -5.38    8.14
  -1   2  -7   -0.53   13.29
   1  -2   7   21.39    9.23
   1  -2   7   26.55   19.01
  -1   2   7   -7.94   10.79
   1  -2  -7   29.95   16.58
  -1   2   7   -9.76   16.07
   1  -2  -7   15.42   12.42
  -2  -1  -7  -15.49   17.40
  -1   2   7   15.69   19.62
   2   1  -7   -4.79   10.73
   2   1  -7  -12.21   17.09
   2   1  -7   -8.46   11.64
  -2  -1  -7   -1.70   13.29
  -2  -1  -7   40.75   13.02
  -2  -1   7  -22.60   15.86
  -1   2  -7   34.53   17.16
   2   1   7   -2.84   10.96
  -2  -1   7   -3.54    9.46
   2   1   7   20.42   19.05
  -2  -1   7   38.65   19.19
   1  -2  -7    5.42   11.34
  -2   2  -2  178.52   13.74
  -2   2  -2  162.01   14.03
   2   2   2  180.68   11.69
  -2   2  -2  161.08    9.56
   2  -2  -2  160.08   13.26
  -2  -2   2  169.68   11.08
   2  -2  -2  154.54   10.69
  -2   2   2  141.00   13.86
  -2  -2   2  179.69   12.91
   2   2  -2  168.58   12.27
   2   2  -2  184.00   11.29
  -2   2   2  180.92   12.69
  -2  -2  -2  168.34   11.54
   2  -2   4  219.29   17.71
   2   2  -4  193.94   14.21
  -2   2  -4  150.73   15.51
  -2   2   4  186.54   14.04
  -2  -2   4  220.15   17.15
  -2  -2   4  183.30   12.19
  -2   2   4  235.88   17.94
   2  -2  -4  206.01   16.70
  -2   2  -4  228.28   17.60
   2   2  -4  184.59   16.33
  -2  -2  -4  205.71   13.94
   2  -2   4  209.16   12.35
   2  -2  -4  178.03   13.34
  -2   2  -4  199.48   12.21
  -2  -2  -4  211.89   17.01
   2   2   4  210.98   13.72
   2  -2  -6   -5.07   10.03
   2  -2   6  -12.67    8.26
   2   2   6   -3.43   10.40
  -2   2  -6    8.17   12.88
  -2   2   6    4.37   16.27
  -2   2   6    0.74    9.78
   2   2  -6   26.55   15.72
   2   2   6  -15.07   16.67
  -2  -2  -6  -18.08   15.42
   2  -2   6    2.91   16.10
   2   2  -6   10.73   11.31
   2  -2  -6   -6.05   10.49
  -2  -2   6    1.25    7.44
  -2   2  -6   -9.68   15.04
  -2  -2   6    2.09   15.64
   2  -2  -6   11.26   15.04
  -2   2   6  -20.45   14.91
  -2   2   8   67.67   19.62
  -2  -2   8   23.30   20.93
  -2  -2   8   21.86   17.22
   2   2  -8   41.66   19.33
  -3   2   1   63.74    6.48
  -3   2  -1   58.99   11.21
  -2  -3   1   87.27    5.83
  -2  -3  -1   81.39    7.64
   2   3   1   73.06    9.02
  -3   2  -1   69.99    7.94
   3  -2  -1   77.22    9.19
  -2  -3   1   88.41    7.34
  -3   2  -1   74.27    7.03
  -2  -3  -1   77.42    8.63
   3  -2   1   89.03    8.68
   2   3  -1   90.99    7.32
  -2  -3   1   83.80    7.03
  -3   2   1   76.77    8.92
  -2  -3   1   83.59    6.35
  -2  -3  -1   78.99    9.16
   3  -2  -3   44.52   11.71
  -2  -3   3   45.43    5.65
   3  -2  -3   31.44    7.11
  -3   2  -3   37.03    6.11
   2   3   3   33.18    8.60
  -3   2  -3   38.87   12.66
   2   3  -3   31.82    9.35
  -2  -3  -3   37.23    8.88
   3  -2   3   26.25    6.76
  -2  -3   3   45.43   11.17
  -3   2   3   43.63    9.27
  -3   2   3   32.09   11.32
  -3   2  -3   41.05   12.14
  -3   2   3   40.09   12.60
   2   3  -3   36.21   11.19
  -2  -3  -5   11.24    9.66
  -3   2   5    1.03    9.06
   3  -2  -5    0.55    8.07
  -2  -3  -5   -8.18   13.54
  -3   2  -5   -5.95    7.18
   3  -2   5    5.02    7.14
  -2  -3   5   -1.67   13.45
   2   3  -5   -2.63   12.73
  -3   2  -5   -2.92   13.89
  -3   2   5  -16.00   14.10
   3  -2   5   -7.87   13.76
  -2  -3   5    4.08    5.92
   3  -2  -5   26.56   13.30
  -3   2  -5    9.28   13.11
  -3   2   5    1.60   11.65
   2   3  -5    6.18   10.07
   2   3   5   18.82   14.16
   2   3   5    3.49    9.05
  -2  -3  -5  -17.75   10.66
   3  -2  -7   40.09   17.37
   2   3   7   54.98   19.76
  -3   2   7   36.16   18.59
   2   3   7   38.92   12.41
  -3   2   7   54.95   16.53
  -3   2  -7   32.35   17.95
  -2  -3  -7   37.14   12.93
   3  -2  -7    9.84   11.16
  -3   2   7   30.78   11.28
   2   3  -7   19.90   17.17
   3  -2   7   28.03    9.55
   2   3  -7    2.15   12.42
   3  -2   7   54.51   19.74
  -2  -3  -7   19.88   14.63
   3  -2  -7   42.37   10.65
  -3   2  -7   26.78   14.24
  -2  -3  -7   45.16   19.01
  -2  -3   7   47.87   19.32
   1   3   2   -2.89    7.74
  -1  -3   2   -0.36    8.73
   1   3  -2   -6.10    8.97
   1   3  -2    8.51    9.70
   3  -1   2    1.75    6.49
  -1  -3   2    2.31    9.41
   3  -1  -2   -3.45   10.11
  -1  -3  -2    1.82    8.17
  -1  -3  -2    6.16    7.73
  -3   1   2    3.36    9.42
  -3   1  -2    7.74    5.85
  -3   1   2    2.91    9.80
   3  -1   4   90.58   14.08
  -1  -3  -4   90.80   10.69
   3  -1  -4   81.36    8.38
  -3   1  -4   96.62   14.16
  -3   1   4   83.22   12.25
   1   3  -4   76.47   11.35
  -3   1   4   95.47   14.02
  -1  -3   4   81.91    6.92
   3  -1  -4  101.12   12.73
   1   3   4   75.65    9.89
  -3   1   4   93.09   10.15
  -1  -3  -4   79.37   13.94
  -3   1  -4   68.30   12.89
   1   3  -4  123.88   13.42
  -1  -3  -4   82.47   10.71
  -1  -3   4   87.47   13.34
   3  -1   4   68.65    8.74
   1   3   4   61.02   13.92
  -3   1  -4   96.39    8.64
   1   3  -6   -3.40   11.90
   3  -1  -6   -2.24    9.27
  -1  -3   6   13.62    6.98
  -3   1  -6    2.10   15.55
   3  -1   6   12.62   16.07
  -3   1   6   14.98   16.21
  -3   1   6   16.88   14.72
  -1  -3  -6   -6.43   11.94
  -3   1   6   -1.05    9.82
  -1  -3   6   18.79   16.02
   1   3   6   -1.20   10.37
   1   3   6   25.63   17.58
   3  -1  -6   27.88   15.74
  -3   1  -6  -13.52   13.52
   3  -1  -6    4.35   10.16
  -1  -3  -6  -15.24   16.04
   3  -1   6  -12.12    9.01
   1   3  -6   -7.89   15.26
  -3   1   8  -12.90   21.47
  -1  -3   8    4.79   17.11
  -1  -3   8   11.67   20.84
  -3   1   8   36.03   18.28
   0  -3  -1  206.07   13.37
  -3   0  -1  239.77   12.95
   0  -3   1  233.09   13.87
   3   0  -1  222.14   13.63
   0  -3   1  250.89   14.04
   0  -3  -1  247.64   13.30
  -3   0   1  240.98   13.73
   3   0   1  230.75   13.80
   0   3  -1  211.43   13.78
   0  -3  -3   51.68   12.16
   0   3   3   51.61    9.26
   0   3  -3   71.15   12.37
   0  -3  -3   86.33    9.95
  -3   0  -3   70.01    7.82
  -3   0   3   79.88   10.88
   0  -3   3   52.65    5.04
  -3   0   3   64.65    8.76
   3   0  -3   55.97   11.83
   0   3  -3   66.18   11.53
   0  -3   3   72.77   12.09
   3   0   3   52.95    8.36
   0  -3  -3   46.97    9.21
  -3   0   3   57.30   11.95
   3   0  -5   -3.69   13.14
   0   3  -5   -6.49   10.64
  -3   0   5   -3.99    8.47
   0  -3  -5    9.93    9.41
   3   0  -5   -6.70    8.10
   3   0  -5  -16.25    7.73
  -3   0   5   10.88   13.79
  -3   0  -5   12.60   12.16
  -3   0   5    0.50   11.99
  -3   0  -5    1.16   13.77
   0  -3   5   -0.57   12.91
   3   0   5    5.52   14.03
  -3   0  -5   -7.35    8.46
   0  -3   5    0.17    5.89
   0   3   5   -0.62   14.11
   0   3  -5    9.36   12.88
   3   0   5    5.20    8.07
   0   3   5    2.72    9.03
   0  -3  -5   39.28   13.71
   0   3   7   10.64   19.16
   3   0  -7  -10.77   10.88
   3   0   7  -20.55   20.25
   0  -3  -7  -13.63   17.19
   0  -3  -7   13.37   12.04
   0   3  -7   -1.59   17.19
  -3   0   7   21.86   19.03
  -3   0   7    5.77   16.07
   3   0  -7    6.94    9.95
  -3   0  -7    2.47   17.68
   0  -3   7  -15.97   18.43
   0   3   7   19.41   11.47
   0  -3  -7   14.62   13.00
  -3   0   7   -1.80   10.03
   0   3  -7    0.50   13.31
  -3   0  -7   -0.60   14.37
   3   0  -7   34.11   17.00
   3   0   7    7.16   10.55
  -1   3  -2  207.02   15.09
  -3  -1  -2  193.15   12.26
  -1   3  -2  180.70   14.81
  -3  -1   2  180.58   13.49
  -3  -1   2  205.96   13.88
   1  -3   2  197.90   14.65
   1  -3   2  210.80   14.92
   1  -3  -2  190.77   12.54
   3   1  -2  196.04   13.88
   3   1   2  199.57   13.00
   1  -3  -2  209.11   13.13
   1  -3  -2  186.40   14.92
  -1   3   2  215.04   13.66
   3   1   2  158.56   14.79
   1  -3   4   53.04   13.45
  -3  -1  -4   66.66    8.84
   1  -3  -4   60.88    9.22
   3   1  -4   69.63   12.26
  -1   3   4   65.32    9.69
  -3  -1   4   54.09    7.99
  -1   3  -4   88.61   13.32
   3   1  -4   57.17    8.81
  -1   3   4   69.74   13.39
  -3  -1  -4   67.85   12.83
  -1   3  -4   48.79   11.90
   1  -3  -4   50.99   13.60
  -3  -1   4   75.70   13.04
   1  -3   4   55.19    6.12
   3   1   4   73.24    8.71
   1  -3  -6    2.83   10.80
   1  -3   6  -13.57   16.07
   1  -3   6   -4.91    7.14
  -3  -1   6   12.53   16.39
  -1   3   6    0.79   10.07
  -1   3  -6   -6.34   12.83
  -1   3  -6  -19.12   15.64
   3   1  -6   19.40   10.67
   1  -3  -6  -12.87   15.42
  -3  -1  -6   24.60   16.88
   3   1  -6   34.47   16.19
  -1   3   6   -5.94   15.82
  -3  -1   6    2.98   13.90
  -3  -1  -6   23.73   13.95
  -3  -1  -6   29.46   10.55
   3   1   6  -15.80   16.71
   3   1   6   -2.93   10.10
  -3  -1   6    9.53    9.09
  -3  -1   8   19.77   17.67
  -3  -1   8  -33.97   20.87
   3   1  -8  -12.22   18.94
  -2   3   1   21.52    6.74
  -3  -2  -1   25.10    8.03
  -3  -2  -1   29.69    6.56
   2  -3  -1   13.72    8.24
   3   2   1   19.95    7.32
   3   2  -1   21.78    5.49
  -3  -2   1   24.44    5.16
  -3  -2   1    1.39    5.56
  -2   3  -1   25.66    5.73
  -2   3  -1   17.67    9.87
  -3  -2   1   10.35    5.69
   3   2   1   17.78    7.14
   2  -3   1   12.92    6.72
   2  -3  -1   20.94    6.24
  -2   3   3   95.63   10.83
  -2   3   3   83.00   12.06
   3   2  -3   93.87    9.35
  -3  -2  -3   81.20    9.49
  -2   3  -3   84.02    6.35
   2  -3  -3   96.52   13.98
  -2   3  -3   93.62   13.15
  -2   3   3  112.28   14.10
   3   2  -3   79.91   11.79
  -3  -2   3   82.57   12.15
   3   2   3   62.30    9.91
   2  -3  -3   87.01    9.37
  -2   3  -3   98.37   12.58
   2  -3   3  109.53   13.93
   2  -3  -5   -6.05    8.79
  -3  -2   5   -0.45    6.85
  -2   3  -5    1.15   13.35
  -2   3   5  -17.02   14.31
   2  -3   5   -4.75    6.23
  -3  -2  -5    9.82    9.30
  -3  -2  -5   21.69   12.71
   3   2  -5   18.67   12.80
   3   2   5    4.71    9.26
  -3  -2   5    9.97   13.56
   3   2  -5   12.52    9.32
   2  -3   5    5.34   13.55
  -2   3  -5   22.32   12.00
  -2   3   5   -2.19   11.87
  -2   3   5    5.33    9.25
   2  -3  -5   -8.36   12.61
   3   2  -7   34.52   17.63
  -3  -2  -7   54.48   13.66
  -2   3  -7   14.77   14.46
   2  -3  -7   24.45   17.47
   3   2   7   45.89   12.12
  -3  -2   7   12.47   15.50
   3   2  -7    8.50   11.55
  -2   3  -7    9.04   18.06
   2  -3  -7   15.53   11.51
  -2   3   7   41.78   11.65
  -3  -2  -7   28.13   17.82
  -2   3   7   28.39   16.36
   3   2  -7   34.20   10.14
  -2   3   7   21.91   19.61
  -3  -2  -7    1.25   14.90
  -3  -2   7   12.36   18.21
   2  -3   7   30.98   19.44
   3   2   7   56.05   20.71
  -3  -2   7   24.84    9.01
   2  -3  -7   29.59   11.26
   3   3  -2  357.31   20.40
  -3   3  -2  387.36   23.37
   3  -3   2  390.32   20.14
  -3   3   2  414.90   22.46
  -3  -3  -2  416.38   21.30
  -3   3   2  356.27   20.55
   3  -3  -2  349.33   22.76
   3  -3  -2  412.72   20.57
  -3   3  -2  329.80   23.01
  -3  -3   2  384.91   21.31
   3  -3   2  382.09   23.39
   3   3  -2  421.04   21.46
  -3  -3   2  410.51   20.63
   3   3   2  405.90   21.75
   3   3   2  350.98   22.89
  -3   3  -2  380.13   19.90
  -3  -3   2  420.55   21.05
  -3  -3  -2  375.59   22.75
  -3   3  -4    1.85    5.92
  -3   3   4    1.96    9.34
  -3  -3   4   -0.17    6.24
   3   3   4    4.27    9.20
   3   3  -4    7.15    8.65
  -3   3  -4   -3.32   12.91
  -3   3   4   25.58   13.52
  -3   3  -4   -1.31   12.72
   3  -3  -4    6.74   12.37
  -3  -3   4    1.69   11.34
  -3   3   4    0.45   10.98
   3  -3   4    0.48   12.29
  -3  -3  -4   -1.85    8.81
   3   3  -4   11.29   11.44
   3  -3  -4    3.28    7.36
  -3   3   6  -28.25   15.25
   3  -3   6  -15.45   16.78
  -3   3  -6  -10.47   13.75
  -3  -3   6   20.43   13.44
   3   3   6   10.00   16.66
   3  -3  -6   -4.83    9.67
  -3  -3  -6   10.61   11.52
  -3  -3  -6    2.07   12.64
   3  -3  -6   -3.32   15.08
  -3   3   6    1.64   10.60
   3   3  -6   14.45   10.98
  -3  -3   6   14.23   15.84
  -3   3  -6  -10.65   15.59
   3   3  -6   44.27   15.34
   3   3   6   -7.94   10.79
  -3  -3  -6   -1.42   16.33
  -3   3   6   11.03   17.20
  -3  -3   6    4.26    7.29
   3   3  -8  -42.69   19.46
  -3  -3   8  -29.50   20.31
  -3  -3   8   25.49   17.33
  -4   3  -1 2798.43  136.82
   3   4  -1 2785.51  136.43
  -3  -4   1 2906.83  136.50
  -4   3   1 2769.32  136.46
   3   4   1 2747.81  136.78
   3   4  -1 2724.66  136.49
  -3  -4   1 2769.04  136.36
   4  -3   1 2735.42  136.81
   4  -3  -1 2734.48  136.47
   4  -3  -1 2847.74  136.91
  -3  -4  -1 2811.51  136.87
  -3  -4   1 2853.44  136.29
  -3  -4   3   51.90    9.19
   3   4  -3   35.46   10.94
  -4   3   3   42.72   11.80
  -3  -4  -3   44.21   10.45
   4  -3  -3   34.94   12.03
  -4   3  -3   42.84   12.16
  -4   3   3   49.74   10.40
  -3  -4   3   41.25   10.83
  -4   3  -3   43.87    6.31
   3   4  -3   48.01    8.64
  -4   3   3   50.36   12.89
   4  -3   3   43.82    6.95
  -4   3  -3   44.50   13.46
   3   4   3   33.12    9.53
   3   4   3   48.53   13.00
  -3  -4  -3   37.35    9.58
   4  -3  -3   51.40    7.34
   3   4   5    4.62    9.74
   4  -3  -5    2.08    7.98
  -4   3  -5   -6.19    6.75
  -3  -4   5   -2.17   13.10
  -3  -4  -5   15.33   10.10
  -4   3   5    2.23   12.53
   4  -3   5    6.01    7.22
  -3  -4   5   -2.76    5.43
  -4   3  -5    7.84   14.05
  -4   3   5   -2.41   13.97
   3   4  -5    1.55   12.46
  -4   3  -5   19.12   13.65
   4  -3   5   -6.77   13.34
  -3  -4  -5   -4.60   10.77
  -4   3   5    4.24    9.59
   3   4  -5   -5.56    9.47
   4  -3  -5   20.40   13.15
   3   4  -7   90.35   18.61
   4  -3  -7  107.81   19.30
  -4   3  -7   82.35   19.96
  -4   3   7  131.25   19.13
  -3  -4   7  140.50   17.31
   4  -3   7  114.25   21.57
   3   4   7  101.45   14.66
  -4   3  -7   64.53   16.10
  -4   3   7   93.32   20.73
  -3  -4  -7   65.89   15.05
  -3  -4  -7   76.80   19.18
  -4   3   7  112.51   13.61
  -3  -4   7  107.53   19.74
   3   4   7  102.78   21.25
  -2  -4   0  341.88   18.11
   2   4  -2 1086.96   55.74
   4  -2  -2 1101.35   55.06
  -4   2  -2 1147.44   57.22
   4  -2  -2 1212.24   56.67
  -4   2   2 1110.61   55.09
  -4   2   2 1154.29   56.64
  -2  -4   2 1207.59   56.18
  -2  -4   2 1023.86   54.87
   4  -2  -2 1104.21   56.45
  -2  -4   2 1129.45   56.02
  -4   2   2 1160.22   56.49
   2   4   2 1129.05   56.90
   4  -2   2 1149.72   56.36
  -4   2  -2 1137.19   55.42
   4  -2   2 1097.63   55.54
  -2  -4  -2 1162.68   56.10
   2   4  -2 1111.01   56.20
  -2  -4  -2 1183.79   56.43
   2   4   2 1191.13   56.20
  -2  -4  -4    0.74    9.71
  -4   2  -4   11.78    6.23
  -4   2  -4    8.70   12.51
   4  -2  -4    2.82    6.82
  -4   2   4    5.98    9.19
  -4   2   4   -2.80   12.79
   2   4  -4    5.02    9.76
  -2  -4   4    6.64    4.16
  -4   2  -4    0.48   12.62
  -4   2   4   10.52   11.79
   2   4  -4   15.73   11.81
  -2  -4   4   -1.28   11.55
   2   4   4   15.90    8.99
  -2  -4  -4   -3.02    9.19
   4  -2  -4   -3.03   11.76
   4  -2   6   -9.00   16.36
  -2  -4  -6  -14.83   15.38
   4  -2  -6   15.95    9.19
  -4   2  -6    4.05   13.91
  -2  -4   6   42.79   15.94
  -4   2  -6   15.06   16.23
  -2  -4   6   15.03    5.91
  -4   2   6   34.35   14.55
  -4   2   6    5.76   16.44
   2   4   6   42.30   18.13
   4  -2  -6    2.76    8.98
  -2  -4  -6    9.97   12.18
   2   4  -6   17.10   11.53
   2   4   6    0.43   11.17
   4  -2  -6   12.98   14.84
   2   4  -6   18.79   15.66
  -4   2   6    9.51   10.78
  -2  -4   8   21.18   16.81
  -4   2   8   -7.01   18.34
   2   4  -8    8.90   18.46
  -2  -4   8    3.81   20.09
  -4   1  -1 2161.99  101.79
  -1  -4   1 2039.28  101.18
  -1  -4   1 2114.74  101.86
  -1  -4   1 2132.84  101.80
  -1  -4  -1 2163.26  102.06
   1   4   1 2221.12  102.09
   1   4  -1 2085.65  101.85
  -4   1  -1 1908.15  102.03
   4  -1  -1 2131.03  101.73
  -4   1   1 1973.25  102.00
   4  -1  -1 2148.03  102.08
   1   4  -1 2135.06  101.80
  -4   1   1 2043.44  101.77
   1   4   1 1841.47  101.99
   4  -1   1 2033.28  102.04
   4  -1   1 2095.70  101.84
  -1  -4  -3   26.79    9.63
  -1  -4   3   10.60   11.44
  -4   1   3   17.09   11.30
   1   4   3   11.97    9.03
  -4   1  -3    2.29   12.76
  -1  -4  -3    3.84    8.25
   1   4  -3   15.56   11.67
  -4   1   3    8.48   11.51
   4  -1  -3    8.75    5.23
   1   4  -3   29.26   10.52
  -4   1  -3   18.59    6.64
  -1  -4   3    7.81    2.68
  -1  -4   3    8.84   10.07
   4  -1  -3   14.19   11.49
   4  -1   3   24.64    7.30
  -4   1  -5   42.57   13.18
   4  -1   5   13.02   14.37
   4  -1   5    8.74    8.23
  -1  -4  -5   21.98    9.89
   4  -1  -5   23.20   12.97
  -4   1  -5   15.57    8.09
  -4   1   5   24.00   11.74
   1   4  -5   31.43   13.54
  -1  -4  -5   24.01   10.58
  -4   1   5   25.98   14.01
   1   4   5   30.97   14.63
  -4   1  -5   66.98   14.56
  -1  -4   5   29.41    4.96
   4  -1  -5   18.43    7.86
   1   4   5   37.32   10.00
   1   4  -5   14.78   10.92
  -4   1   5   19.20    9.47
   4  -1  -5   34.75    7.71
  -1  -4  -5   -0.58   13.28
  -1  -4   5   55.98   14.00
  -4   1   7    7.18   10.49
   4  -1   7   47.43   20.23
   4  -1   7   24.99   10.08
  -1  -4  -7   13.05   17.20
  -4   1  -7   20.85   14.37
   1   4   7   29.12   12.32
   1   4   7   36.98   18.99
  -4   1   7   29.56   18.56
  -4   1   7    4.46   16.24
  -1  -4   7   32.14   18.32
   1   4  -7   52.51   17.83
  -4   1  -7   45.30   18.07
   1   4  -7   18.43   13.39
   4  -1  -7   44.57   17.35
  -1  -4  -7   25.22   12.50
   4   0   2   50.45    8.47
   0   4   2   63.24    9.71
   0  -4  -2   65.09    9.86
  -4   0   2   43.52    9.68
  -4   0   2   63.42   10.13
   0  -4   2   62.85   10.23
   0   4  -2   60.46   10.67
   0   4  -2   66.95   10.37
   4   0   2   48.08   11.14
   0   4   2   43.84    9.55
   4   0  -2   50.45    9.93
   4   0  -2   54.44   10.13
   0  -4  -2   46.54    8.84
  -4   0  -2   59.55    7.46
   0  -4   2   56.57   10.17
   0  -4  -4   28.72   12.06
  -4   0  -4   24.02    7.65
   4   0  -4   16.39    6.97
   0   4   4   26.92    9.33
   0   4  -4   27.72   11.62
   4   0   4   30.16    8.73
   0   4   4   39.81   13.44
  -4   0   4   12.95    8.13
  -4   0   4   21.87   11.07
   0  -4   4   25.88   11.80
   4   0  -4   16.34   12.19
   4   0  -4   34.67    6.40
   0  -4  -4   28.86    9.35
   0   4  -4   14.07   11.54
   0  -4   4   17.12    3.91
  -4   0   4   33.57   12.79
   0  -4  -4   21.27    9.56
  -4   0   6    7.97   14.60
   0  -4  -6   -9.82   11.35
  -4   0  -6   -2.13   15.98
  -4   0  -6    4.65   13.59
   0   4   6  -13.64   17.03
  -4   0  -6  -12.49    9.98
   0  -4  -6    1.38   15.88
   4   0   6    3.13    9.92
   0   4  -6   -0.47   12.58
   0  -4   6   -4.20   15.96
   4   0   6  -12.10   16.17
   4   0  -6    6.39    8.86
   0   4  -6    4.04   15.05
   4   0  -6   -3.01    9.69
   0   4   6    5.08   10.82
  -4   0   6    2.10   16.03
   4   0  -6  -22.74   15.60
  -4   0   6    7.75    9.45
   0  -4   6   -4.00    5.54
  -4   0  -8    0.70   16.13
  -4   0   8   -7.79   20.83
  -4   0   8  -14.37   17.97
   4   0  -8  -20.86   18.77
  -1   4  -1 5042.18  246.80
  -1   4   1 5035.59  246.76
  -4  -1   1 5179.24  246.54
   4   1   1 5030.01  246.69
  -4  -1  -1 5022.18  246.70
   1  -4  -1 5164.07  246.68
  -4  -1  -1 5138.64  246.67
   1  -4   1 5186.93  246.96
   4   1  -1 4999.97  246.56
   4   1   1 4563.93  246.64
   1  -4   1 5138.23  246.35
  -4  -1   1 5132.80  246.27
  -1   4   1 5093.11  246.71
  -1   4  -1 5149.96  246.87
   1  -4   1 4925.96  246.73
  -1   4  -1 5046.45  246.32
  -1   4   3   31.17   12.69
  -4  -1  -3   27.43    7.80
   1  -4  -3   43.90   13.02
   4   1  -3   23.74    5.88
   1  -4  -3   40.30    9.10
  -4  -1   3   43.17   11.65
  -1   4   3   31.65    9.68
   4   1  -3   34.70   10.30
   1  -4   3   37.29   12.53
  -1   4  -3   42.93   12.97
   4   1   3   38.75    8.48
  -4  -1   3   19.48    9.96
  -1   4  -3   40.33   12.32
  -4  -1  -5   27.90   13.04
  -1   4  -5   53.45   13.77
  -4  -1   5   22.90   13.49
   1  -4  -5   18.36    9.93
  -1   4   5   23.53    9.92
  -4  -1  -5   34.00    9.48
   4   1  -5   21.99    8.41
  -4  -1   5   33.66    8.04
   1  -4   5   18.58   14.22
   4   1   5   27.62    9.13
  -4  -1   5   15.26   12.14
   4   1  -5   36.51   13.02
   1  -4   5   30.83    4.98
   1  -4  -5   16.02   12.94
  -1   4   5   20.56   14.36
  -1   4  -5   17.69   12.28
  -1   4   7   43.18   17.42
  -1   4  -7   18.54   14.22
   1  -4  -7   39.33   12.20
  -1   4  -7   77.98   19.18
  -4  -1  -7   60.92   19.18
  -1   4   7   44.89   12.28
  -4  -1   7   68.15   10.51
  -4  -1  -7   35.70   15.55
   4   1   7   67.24   20.07
   4   1  -7   26.03   17.21
   1  -4   7    0.84   18.24
  -4  -1   7   32.99   18.58
   1  -4  -7   65.11   18.83
   4   1   7   40.51   11.86
  -1   4   7   59.73   19.82
  -4  -1   7   37.84   16.39
   2  -4   0   63.51    8.05
   2  -4  -2  186.53   15.21
  -4  -2  -2  163.58   14.87
   4   2  -2  207.33   13.10
  -2   4   2  170.33   12.63
   2  -4   2  176.15   15.43
  -2   4  -2  208.79   15.49
   2  -4   2  196.00   15.07
  -2   4   2  218.06   14.38
  -4  -2  -2  206.01   12.78
   4   2   2  184.66   13.40
  -2   4  -2  176.84   15.43
   4   2   2  175.65   14.60
   2  -4  -2  197.99   12.52
  -4  -2   2  178.64   13.57
  -4  -2   2  184.30   13.33
   2  -4  -4   44.68   12.81
   2  -4   4   26.50    4.73
  -2   4   4   42.98   11.99
  -2   4   4   37.92   13.62
   2  -4  -4   36.56    8.61
  -2   4   4   60.37    9.92
  -2   4  -4   56.65   12.97
   4   2  -4   35.61   11.22
  -2   4  -4   44.41   12.02
  -4  -2   4   33.27   12.22
  -4  -2   4   27.41   10.16
  -4  -2   4   51.91    7.86
   4   2  -4   42.25    7.78
  -4  -2  -4   48.58    9.10
   4   2   4   28.23    9.04
   2  -4   4   37.37   12.22
  -2   4   6   18.15   14.67
   2  -4   6   35.35   16.00
   4   2   6    4.88   10.88
   4   2   6   -3.86   16.76
   4   2  -6    9.36   14.91
  -4  -2  -6   12.16   16.68
  -2   4   6    2.57   10.82
   2  -4  -6   16.38   10.89
  -4  -2   6   29.98   16.48
  -4  -2   6   33.28   14.50
   4   2  -6   29.27   10.01
  -2   4   6    7.50   17.50
  -4  -2  -6   14.26   11.45
  -4  -2   6   28.96    9.06
  -2   4  -6    7.72   16.18
  -2   4  -6   28.80   13.61
   2  -4  -6   18.36   14.82
  -4  -2   8  -44.73   21.68
  -4  -2   8  -18.76   16.81
  -4  -2  -8   -4.07   14.17
   4   2  -8    8.56   17.92
  -4  -2  -8   -5.07   16.11
  -4  -3  -1 5087.53  252.98
  -3   4   1 5252.31  252.76
   3  -4  -1 5158.89  252.78
  -4  -3   1 5318.38  252.71
  -4  -3   1 5217.28  252.25
  -3   4  -1 5095.65  253.42
   4   3  -1 5255.35  252.45
  -4  -3   1 5117.30  252.43
   4   3  -1 5239.17  252.74
   4   3   1 5226.02  252.88
  -3   4  -1 5196.29  252.78
  -4  -3  -1 5238.03  252.84
   3  -4  -1 5094.26  253.06
  -3   4   1 4780.24  253.04
   3  -4   1 5226.52  252.80
  -4  -3   1 5190.29  252.43
   4   3  -3  187.57   11.54
  -3   4   3  203.09   16.44
   3  -4  -3  213.71   16.07
  -3   4  -3  167.35   10.14
  -3   4  -3  209.23   17.00
  -4  -3   3  214.12   15.03
   4   3   3  189.62   13.86
  -4  -3  -3  172.60   12.97
   4   3   3  191.60   16.49
   3  -4   3  166.75   10.72
  -3   4  -3  188.67   16.08
   4   3  -3  195.96   14.53
  -3   4   3  182.02   14.35
  -4  -3  -3  173.35   15.78
   3  -4  -3  212.37   12.81
  -4  -3   3  223.11   14.25
  -3   4   3  167.16   15.55
   3  -4   3  209.06   15.83
   3  -4  -5   48.81   13.92
  -3   4  -5   40.03   13.15
  -4  -3  -5   42.68   10.45
   3  -4  -5   51.14    9.18
   4   3   5   29.03   10.45
   3  -4   5   30.00    6.14
   4   3  -5   48.14    9.30
  -3   4   5   32.07   14.56
   3  -4   5   70.00   14.98
   4   3  -5   70.51   13.76
  -3   4   5   50.33   13.76
  -3   4   5   62.10   10.79
  -4  -3   5   31.98   12.07
  -4  -3   5   51.31   13.91
  -4  -3   5   30.01    7.24
  -3   4  -5   45.24   14.03
  -4  -3  -7   87.71   15.90
  -3   4   7  112.35   18.94
   3  -4   7  109.56   20.54
  -3   4   7   83.16   13.70
   4   3  -7   83.22   18.41
  -3   4   7   95.07   21.51
   4   3   7   83.69   21.20
  -3   4  -7   84.01   20.39
  -4  -3   7  110.52   20.30
  -3   4  -7   54.01   16.07
  -4  -3  -7  111.83   20.38
   4   3   7  120.66   14.19
   3  -4  -7  109.33   19.43
   3  -4  -7  114.40   12.98
  -4  -3   7  128.64   17.27
  -4  -4   0  682.48   33.87
   4  -4   0  660.83   35.73
  -4  -4   0  772.02   34.78
   4   4   0  680.35   34.95
   4   4   0  713.55   34.91
   4  -4   0  686.31   35.22
   4   4   0  696.02   33.98
  -4  -4   0  663.72   34.75
  -4   4   0  581.12   35.14
  -4   4   0  613.23   35.71
  -4  -4  -2  663.41   35.00
  -4  -4   2  695.65   33.24
  -4  -4   2  684.46   33.93
   4  -4  -2  668.29   33.51
  -4   4  -2  603.64   35.91
   4   4  -2  706.89   33.88
   4   4   2  627.37   34.38
   4   4   2  637.23   35.31
  -4   4   2  658.23   33.55
  -4  -4  -2  688.51   34.18
  -4  -4   2  671.43   33.39
  -4   4   2  639.74   35.05
   4  -4   2  627.72   36.01
   4  -4   2  647.00   34.39
  -4  -4   2  657.61   33.43
   4  -4  -2  573.61   34.86
   4   4  -2  664.87   33.18
  -4   4  -2  629.86   33.14
  -4  -4  -2  628.76   35.20
   4  -4   4  271.97   16.33
  -4  -4   4  269.03   16.40
   4   4   4  296.62   18.92
   4  -4   4  335.48   21.70
   4   4  -4  343.48   19.90
  -4   4  -4  284.19   16.07
  -4  -4   4  328.31   20.25
  -4   4  -4  291.46   21.23
  -4   4   4  307.12   18.86
  -4   4   4  355.38   20.54
  -4   4  -4  296.39   21.31
  -4  -4   4  306.44   19.08
   4  -4  -4  289.18   17.15
   4   4  -4  290.51   17.38
  -4  -4  -4  317.98   18.55
   4   4   4  314.24   21.14
   4  -4  -4  318.62   20.49
  -4   4   4  301.90   21.37
  -4  -4  -6   50.11   13.49
  -4  -4   6   24.52   16.31
  -4  -4   6   26.69    7.31
  -4  -4   6   37.24   14.17
  -4   4   6   20.43   11.51
   4  -4   6   49.83    7.58
   4  -4   6   41.72   16.02
   4  -4  -6   25.52   15.96
   4   4   6   38.08   12.06
   4   4  -6   27.32   15.45
  -4   4  -6    9.50   14.70
   4   4  -6   20.40   10.28
  -4   4   6   28.93   16.91
   4  -4  -6    4.92    9.26
  -4   4   6   42.93   15.07
  -4   4  -6   28.50   16.96
  -4  -4  -6   33.22   12.20
  -4  -4   8   32.29   17.71
  -4  -4  -8   10.03   17.26
  -4  -4   8   33.55   20.34
   4   4  -8   33.38   18.91
  -4  -4  -8  -31.10   15.23
  -5   4   1  459.24   24.33
  -5   4  -1  421.74   24.88
   5  -4   1  463.69   24.96
   5  -4  -1  439.99   24.47
  -4  -5   1  459.03   24.20
   4   5   1  430.98   24.64
   4   5  -1  486.49   24.29
  -4  -5   1  441.94   23.14
   4   5  -1  490.33   24.12
  -4  -5   1  454.41   23.83
  -4  -5  -1  449.17   24.79
   5  -4   1  440.04   25.43
  -4  -5   3   99.52   10.55
   4   5  -3  104.77   11.81
  -5   4   3  104.55    9.23
   5  -4   3  113.61    9.10
  -5   4   3  130.65   14.00
   5  -4   3  114.64   13.05
  -5   4   3  114.68   14.50
  -5   4  -3   93.00    8.49
  -5   4  -3  108.28   14.96
   4   5   3  104.29   11.50
  -4  -5   3   92.29    8.42
   5  -4  -3   96.87    8.97
  -4  -5  -3   83.69   14.13
   4   5  -3  102.77    9.38
  -4  -5   3   99.58   10.39
  -4  -5  -3  105.83   11.03
  -4  -5  -3   94.71   12.32
   5  -4  -3  106.74   13.67
   4   5   3  109.31   14.39
  -4  -5   3   80.62   11.35
   4   5  -5  104.75   14.41
   5  -4  -5   93.37   14.84
  -4  -5   5   82.88    7.17
  -5   4   5   90.95   16.05
  -5   4  -5   67.89   14.94
  -5   4   5  101.77   14.53
  -4  -5  -5   68.44   12.26
  -5   4  -5   76.92   15.54
  -5   4  -5  107.15    8.45
   5  -4  -5   69.84    9.22
  -4  -5   5  107.98   12.95
   5  -4   5   79.82    8.80
  -4  -5  -5   74.98   13.27
  -5   4   5   79.41   12.20
   5  -4   5   89.14   15.89
  -4  -5   5   78.73   14.54
   4   5   5   86.70   12.28
   4   5  -5   80.29   10.28
  -4  -5  -7   22.09   18.43
   4   5  -7  -11.11   15.78
  -5   4   7   20.00   19.53
   4   5   7    2.17   12.87
  -4  -5  -7    8.24   13.77
  -4  -5   7    8.48   15.13
   5  -4   7  -18.78   19.02
  -5   4   7  -21.60   17.04
  -4  -5  -7   15.42   13.09
   5  -4  -7   25.85   16.95
  -5   4  -7    8.10   14.78
  -5   4  -7   13.92   19.12
  -4  -5   7    3.96   17.85
  -5   4   7   11.60   11.95
   3   5   0    9.23    9.17
  -3  -5   0    3.34    6.80
  -5   3   0    7.61   10.87
   5  -3   0   14.73   10.68
   3   5   0   13.36    7.63
  -3  -5   0   12.70    8.51
  -3  -5   0    6.38    7.41
  -3  -5   2  159.77   12.03
  -3  -5  -2  158.12   13.55
   3   5   2  165.51   13.10
  -3  -5  -2  161.67   12.42
  -5   3  -2  140.11   10.93
  -5   3   2  146.25   13.33
   5  -3  -2  172.48   13.46
   3   5  -2  171.56   12.03
  -3  -5   2  159.50    9.85
   5  -3  -2  130.33   13.50
  -3  -5   2  154.80   11.73
  -5   3  -2  117.41   15.26
  -3  -5  -2  149.91   13.54
   5  -3   2  148.76   13.09
  -5   3   2  160.41   14.00
   3   5  -2  153.53   11.23
  -5   3   2  167.72   10.15
   5  -3  -2  151.54   10.17
   3   5   2  138.42   14.38
  -3  -5  -4   53.12   10.56
  -5   3  -4   52.11   14.03
  -5   3   4   64.01   10.41
   5  -3   4   58.29    7.81
  -5   3   4   72.51   13.83
  -3  -5   4   53.57    5.38
  -3  -5   4   86.09   12.59
  -5   3   4   83.57   12.73
   5  -3  -4   60.11    7.37
   3   5   4   56.36   10.39
  -3  -5  -4   59.62   11.44
   5  -3  -4   62.60   12.45
  -5   3  -4   54.52   13.14
   3   5  -4   43.66    9.72
  -5   3  -4   57.21    6.94
   3   5  -4   95.43   12.46
   3   5   4   40.74   13.85
   3   5  -6   13.23   11.18
  -3  -5  -6   -6.99   12.41
   5  -3  -6   10.96    8.53
   3   5  -6   12.12   15.33
  -5   3   6   -2.90   17.18
   5  -3   6   -0.76   16.66
  -3  -5   6    3.99   15.14
  -5   3   6   20.23   11.47
  -3  -5   6    4.61    5.03
  -5   3  -6  -13.27   16.08
   5  -3  -6   18.34   14.83
   3   5   6    2.36   11.83
   5  -3   6   -3.57    8.57
  -5   3  -6    4.33   14.90
  -5   3   6   21.43   14.70
  -3  -5  -6   18.45   11.99
  -3  -5  -6   14.43   16.60
  -5   3  -6    2.39    8.18
  -3  -5   8    6.16   17.13
   3   5  -8  -10.49   18.46
  -3  -5   8   -9.34   20.31
  -5   3  -8    3.60   16.64
  -2  -5  -1  349.67   18.66
   5  -2  -1  325.50   17.40
  -5   2   1  325.15   17.24
   2   5   1  315.94   18.51
  -5   2  -1  304.86   18.14
  -5   2  -1  306.43   17.90
  -2  -5  -1  325.12   18.71
   5  -2  -1  281.78   19.00
   5  -2   1  343.03   18.73
  -2  -5   1  302.67   18.04
  -5   2  -1  320.61   18.66
   5  -2  -1  318.15   18.32
  -2  -5   1  310.32   16.46
  -2  -5   1  323.35   17.42
   2   5  -1  279.78   16.81
   2   5  -1  296.55   17.86
   5  -2   3   13.83    7.68
   5  -2  -3   13.55   11.26
   2   5   3    6.51   12.57
  -2  -5   3    1.27    3.00
   2   5  -3   -0.24    8.97
  -2  -5  -3   10.97   10.00
  -5   2  -3    8.07    6.89
  -2  -5  -3   -4.14    9.01
  -5   2   3    2.14   11.50
  -2  -5   3   14.99   10.10
   2   5  -3   23.30   10.97
  -5   2  -3    8.84   13.35
   2   5   3    8.40    9.34
  -2  -5   3   -7.18    2.44
  -2  -5   3    9.05   10.74
   5  -2  -3    8.04    4.98
  -5   2   3   12.76   11.68
   2   5   5    3.22    9.95
   2   5  -5   -1.80   10.27
   5  -2  -5    0.21    6.62
  -2  -5  -5   -0.45   10.64
  -5   2  -5   -2.23   13.77
  -2  -5  -5   -9.45   11.00
  -5   2  -5   11.59   13.59
  -5   2   5    7.49    9.56
   5  -2   5   23.96   14.37
  -5   2   5    6.02   12.32
   2   5  -5    9.60   13.32
  -2  -5  -5    1.80   13.26
  -5   2  -5    5.08    7.33
  -2  -5   5   -2.19   12.76
  -2  -5   5    8.02    3.60
   5  -2  -5   -0.53   13.23
  -5   2   5  -13.48   13.68
   5  -2   7   35.35   10.19
  -2  -5  -7   14.17   17.70
  -5   2   7   -4.60   17.14
   2   5   7   -5.50   19.84
  -5   2  -7   13.32   14.72
   2   5  -7   -0.87   12.63
  -2  -5  -7    8.68   13.48
  -5   2   7   49.17   18.73
   2   5   7    3.13   12.51
  -5   2   7   16.43   11.29
   5  -2  -7   13.65   17.23
  -5   2  -7   26.61   18.96
   5  -2   7    4.51   19.14
   2   5  -7   29.35   17.18
  -2  -5   7   25.03   18.45
   1   5   0    0.87    6.39
  -1  -5   0    0.87    6.01
   1   5   0  -10.64    7.68
  -5   1   0   -2.50    9.04
   5  -1   0    1.27    8.52
  -1  -5  -2  466.16   24.28
   1   5   2  396.82   24.40
  -5   1   2  394.28   24.25
   5  -1   2  393.84   24.89
  -1  -5  -2  444.77   23.93
   5  -1  -2  427.13   24.30
  -1  -5   2  452.15   24.22
  -5   1  -2  452.34   23.16
   5  -1   2  405.11   23.29
   5  -1  -2  421.63   23.82
   1   5  -2  456.81   24.42
   1   5   2  454.23   23.96
   1   5   2  392.56   25.47
  -5   1   2  454.36   24.63
  -1  -5   2  453.29   24.49
   1   5  -2  429.10   23.91
  -5   1   4   15.82    9.07
   1   5  -4   16.43   11.82
  -5   1  -4    6.88   12.72
   1   5  -4   16.95   11.30
  -5   1  -4   18.00    7.11
  -5   1   4   23.72   11.68
  -1  -5  -4   15.31    9.78
   5  -1  -4   13.71   10.90
   5  -1  -4   27.25    5.38
  -5   1   4   33.30   12.45
   1   5   4   23.56    9.96
  -1  -5   4   16.98   11.34
  -1  -5  -4   18.06    9.94
   5  -1   4   27.65    8.02
   5  -1   6   23.85   10.05
  -1  -5   6    3.93    3.82
   5  -1   6   -6.89   16.79
   1   5  -6    8.92   12.69
   1   5   6    2.73   11.40
  -1  -5  -6   28.27   15.93
  -1  -5  -6    3.41   12.30
  -5   1   6   -3.45   10.29
  -5   1  -6   -7.39   14.31
  -5   1   6   33.14   15.06
  -5   1  -6   10.79    9.46
   5  -1  -6   17.35    7.94
   5  -1  -6    5.06   14.75
  -1  -5   6    2.05   15.49
   5  -1  -6    5.57    8.61
  -5   1   6   20.41   16.27
   1   5   6    3.09   17.08
   1   5  -6    1.33   16.25
  -5   1  -6    5.09   16.10
  -5   1   8   33.11   20.57
  -5   1  -8  -19.58   16.74
  -5   1   8   28.56   18.21
  -1  -5   8   -1.92   20.59
   5  -1  -8    7.78   17.75
   5   0  -1  910.51   47.11
   5   0   1 1002.46   47.09
   0   5  -1  915.68   47.36
  -5   0   1  928.20   47.12
   0  -5   1  954.42   46.10
   0   5   1  849.63   47.37
   5   0   1  939.14   47.02
   0   5  -1 1035.16   47.09
   5   0  -1  887.70   46.42
   0  -5   1  950.15   47.38
  -5   0  -1  959.12   47.02
   0   5   1  923.54   46.95
   0   5   1 1041.08   47.25
  -5   0  -1  905.62   47.20
   0  -5   1  877.70   46.04
   0  -5   1  929.07   47.10
   0  -5  -1  972.59   47.25
  -5   0  -3  231.52   15.16
   0  -5   3  285.77   18.20
   0  -5  -3  236.79   16.44
   0   5   3  261.04   16.63
   5   0   3  243.97   15.83
   0  -5  -3  219.68   16.27
   5   0  -3  265.87   17.01
   5   0   3  247.07   18.34
   0  -5   3  236.13   17.68
   0   5  -3  235.95   18.14
   0   5  -3  258.85   17.85
  -5   0   3  254.53   17.57
  -5   0   3  262.35   17.25
  -5   0   5    1.29    9.15
   5   0  -5   -2.11    6.90
   5   0  -5   -9.01    6.05
   0   5  -5   11.82   11.93
  -5   0  -5    3.04    8.38
  -5   0  -5  -10.25   13.26
   5   0   5  -13.02    8.69
   0   5   5    5.77   14.57
   0  -5  -5   12.44   10.29
   0  -5  -5   28.35   13.51
   0  -5   5    0.41    2.86
   0  -5   5   18.74   12.99
  -5   0  -5    2.24   13.35
  -5   0   5  -11.80   13.97
   5   0  -5  -11.27   12.59
   0   5   5    5.56    9.71
  -5   0   5    7.23   12.50
   5   0  -7   54.67   17.43
  -5   0  -7   51.54   15.83
   0   5  -7   46.09   14.22
   0  -5  -7   82.68   18.13
   0  -5  -7   59.56   13.02
  -5   0  -7   73.90   18.69
  -5   0   7   32.42   10.88
  -5   0   7   13.92   16.56
   0   5  -7   45.74   17.98
  -5   0   7   37.25   18.70
   5   0   7   33.01   11.39
   0   5   7   41.74   20.34
   5   0   7   79.19   20.36
   0   5   7   43.38   12.86
   0  -5   7   41.42   18.60
   0   5   7   38.60   17.25
  -5  -1   0   -1.73    6.73
   5   1   0   -3.14    7.18
   1  -5   0  -10.44    7.67
  -1   5   0   -1.28    6.01
  -1   5   0   -4.03    7.03
   1  -5   0   -0.85    6.63
  -5  -1   0    6.07    4.85
   5   1  -2   22.77    9.09
   1  -5   2   30.62   10.36
   1  -5   2   39.02   11.55
  -5  -1   2   25.66    8.88
  -1   5   2   31.82    9.69
  -1   5   2   36.64   10.99
  -1   5  -2   19.94   10.77
  -5  -1  -2   39.47   10.34
   1  -5  -2   24.84    9.42
  -1   5   2   22.66    9.19
   1  -5  -2   37.20    8.47
   5   1  -2   39.40    8.34
  -5  -1   2   17.75    9.26
   5   1   2   40.50    9.22
  -5  -1  -2   32.67    8.53
  -1   5  -2   36.52   12.23
   5   1   2   27.62   10.48
  -1   5  -4    3.24   12.74
   5   1  -4   -2.37   10.73
   1  -5  -4   -6.76   12.27
  -5  -1   4   -5.54   12.14
  -5  -1  -4    7.23    7.92
   5   1  -4    1.22    4.42
  -5  -1   4   -1.20   10.96
   5   1  -4    5.08    5.76
   1  -5  -4   25.54    9.34
   1  -5   4   -0.46   11.80
   5   1   4   13.97    8.99
  -1   5  -4    9.06   12.24
  -1   5   4    8.25   13.41
  -1   5   4   -0.36    9.62
  -5  -1  -6  -23.11   17.12
  -5  -1   6   15.71   16.62
  -1   5   6   12.41   14.99
  -5  -1  -6   -5.05   15.29
  -5  -1  -6    2.78   10.50
   5   1   6   11.00   10.71
  -1   5  -6  -20.58   13.46
  -5  -1   6   -3.64   14.11
  -5  -1   6   17.88    9.07
   5   1  -6   30.96    8.95
  -1   5  -6   -7.63   15.55
   1  -5   6   -4.33    3.63
   1  -5   6   14.85   16.37
  -1   5   6  -10.72   16.90
  -1   5   6    7.25   10.87
   1  -5  -6    6.95   16.01
   5   1  -6    4.42    7.37
   1  -5  -6    3.90   10.89
   5   1  -6  -17.27   15.05
  -5  -1  -8    9.96   14.68
  -5  -1  -8   18.03   16.93
   5   1  -8    5.92   18.13
  -5  -1   8   32.43   20.73
  -5  -1   8  -24.22   18.76
  -2   5  -1 3854.89  178.81
  -5  -2  -1 3640.73  178.58
   2  -5   1 3693.84  178.33
  -2   5   1 3635.85  178.80
  -2   5  -1 3699.11  179.07
   2  -5  -1 3693.86  178.62
   5   2   1 3707.71  178.57
   2  -5   1 3092.01  178.95
   5   2   1 3713.13  178.66
  -5  -2  -1 3608.21  178.77
  -5  -2   1 3626.67  178.38
   5   2  -1 3596.64  178.41
  -5  -2   1 3654.31  177.89
  -2   5   1 3733.09  178.68
   2  -5  -1 3680.88  178.74
  -2   5  -1 3657.02  178.33
  -5  -2   1 3682.06  177.98
  -5  -2   1 3643.61  178.60
  -5  -2   3   47.60   10.94
  -5  -2  -3   59.75   12.76
  -2   5   3   33.16   10.38
   2  -5  -3   53.66    9.49
  -2   5   3   48.81   13.76
   5   2   3   47.48   10.00
   2  -5  -3   57.01   12.07
  -5  -2   3   34.86   10.73
   5   2   3   49.53   12.41
  -2   5  -3   70.60   13.51
  -2   5  -3   50.11   13.46
   2  -5   3   66.20   12.23
   5   2  -3   34.41   10.35
  -5  -2  -3   44.33    8.73
   2  -5   3   71.44   13.28
  -2   5   5  -10.44   13.15
   5   2   5   12.56    9.99
  -2   5  -5    4.49   12.53
   2  -5  -5    8.07    9.57
  -5  -2   5   -0.81    7.91
  -5  -2  -5    1.06    9.23
   5   2  -5    5.99   12.19
   2  -5   5   -1.36    3.44
   2  -5  -5   -5.84   13.50
  -2   5  -5   23.58   13.66
  -5  -2   5   12.50   13.61
  -5  -2   5   -1.95   12.15
  -2   5   5   31.02   14.65
   2  -5   5    3.55   13.94
  -2   5   5   -0.41   10.35
   5   2  -5   -0.83    6.87
  -5  -2   7   27.29    9.42
   5   2   7   48.03   20.36
   2  -5   7   17.07   18.62
  -5  -2  -7    2.12   15.24
  -2   5  -7   30.83   18.50
  -2   5   7  -16.77   12.44
  -5  -2  -7   -5.08   17.91
   2  -5  -7   58.96   17.60
  -5  -2   7    5.65   18.11
  -2   5  -7   24.59   14.54
  -2   5   7  -11.64   20.02
   2  -5  -7    8.19   11.74
   5   2   7   34.23   12.32
  -5  -2   7   36.54   17.02
   5   2  -7   12.30   16.76
  -2   5   7   38.56   17.55
  -5  -2  -7   26.28   12.29
   5   3   0    7.69    9.24
  -5  -3   0   15.60    7.98
   5   3   0    5.09    7.00
  -5  -3   0   -5.53    6.86
  -3   5   0   75.57   10.06
  -3   5   2   12.14    9.94
  -3   5  -2   -2.34   12.39
  -5  -3  -2    2.46   10.57
   3  -5   2   11.89   10.35
  -3   5   2   13.88   11.12
  -5  -3   2    7.93    3.99
   3  -5   2  -10.31   12.70
  -3   5   2   -3.47    8.19
   5   3   2    2.81   10.30
  -5  -3   2   -1.01    8.11
   5   3  -2    1.06    7.99
   5   3   2   -8.44    9.59
   3  -5  -2   -1.74   11.17
  -5  -3   2    0.75    7.54
   3  -5   2   12.76    8.36
  -5  -3  -2   -4.90    8.57
  -3   5  -2    2.11    4.59
  -3   5  -2   -4.21   11.96
   3  -5  -2    0.98    7.70
   5   3  -2    2.24    7.38
  -3   5  -4   68.96    5.31
  -3   5   4  115.96   11.53
   5   3  -4   99.62   12.43
   3  -5  -4   81.88   13.00
  -5  -3   4  111.62   11.94
  -5  -3   4  112.01   13.21
  -5  -3  -4   92.32   10.22
  -3   5   4  115.21   14.08
  -3   5  -4   83.24   14.39
   3  -5  -4   90.38   10.11
  -3   5  -4   95.56   14.20
   3  -5   4   89.21   13.84
   5   3   4  134.12   15.18
   3  -5   4   59.64    5.73
   5   3   4   99.71   10.91
  -3   5   4   84.60   14.91
   5   3  -4   66.74    7.25
   3  -5   6   10.97   16.86
  -3   5   6   26.72   11.53
   3  -5   6   17.40    4.83
  -5  -3  -6   31.53   11.74
  -3   5   6   -7.58   17.55
   5   3   6   -6.26   11.36
   5   3  -6    6.00    8.56
  -5  -3   6    4.66   15.93
   5   3  -6   31.54   14.94
  -3   5   6   21.44   15.05
  -3   5  -6   32.52   15.88
  -5  -3   6   32.35   14.48
   3  -5  -6    3.01    9.85
   3  -5  -6    2.75   15.27
  -5  -3   6   31.62    8.38
  -3   5  -6   36.32   15.09
  -5  -3   8   -1.61   17.93
   5   3  -8  -12.57   18.56
  -5  -3  -8  -22.26   15.40
  -5  -3  -8   26.85   17.95
  -5  -3   8   -9.31   19.83
  -5  -4   1 4081.09  196.66
  -4   5   1 4150.18  197.24
  -5  -4  -1 3986.93  197.14
  -4   5   1 4158.93  197.59
   5   4  -1 4055.16  196.88
  -5  -4  -1 3402.48  197.30
   4  -5   1 4112.85  197.22
  -5  -4   1 4113.47  197.17
   5   4  -1 4069.55  196.70
   5   4  -1 3912.47  197.21
   5   4   1 4025.74  197.20
   4  -5  -1 4079.47  197.59
  -4   5  -1 4024.64  197.25
   4  -5  -1 4077.45  197.28
  -5  -4   1 4133.31  196.86
   5   4   3   10.57   10.04
   5   4   3   31.38   13.07
  -5  -4   3   19.70    6.74
   5   4  -3   10.81    5.75
  -5  -4   3   22.50    9.28
   4  -5   3    9.27   12.02
  -5  -4  -3   28.10    8.94
   4  -5   3   12.82   13.84
  -5  -4   3   15.96   10.12
   4  -5  -3    3.88    7.99
  -4   5   3   36.51   10.92
  -5  -4  -3   17.55   11.53
  -4   5   3   30.63   12.85
  -4   5  -3    9.84   12.74
  -4   5   3   24.03    8.27
   4  -5   3   15.02   10.14
   5   4  -3   20.24    9.36
   4  -5  -3   32.79   12.40
  -4   5  -3   25.29    4.75
  -4   5  -3    2.61   14.01
  -5  -4   5   37.33   13.56
   4  -5   5   15.85    5.29
  -4   5  -5   24.08   14.99
   4  -5   5   14.90   13.73
  -4   5  -5  -14.83   14.26
  -4   5   5   16.54   13.28
  -4   5  -5    7.11    4.47
   4  -5  -5   21.56   13.26
  -4   5   5   17.95   10.76
   5   4   5   13.82   14.64
  -4   5   5   16.31   14.58
   5   4  -5   15.25   12.46
  -5  -4   5   17.38   11.92
   5   4  -5    6.81    7.38
  -5  -4   5   11.10    7.03
  -5  -4  -5   12.10    9.67
   5   4   5   -4.99   10.94
   4  -5  -5   28.22    9.15
   5   4   7   29.71   13.17
  -4   5   7   -0.89   19.16
   4  -5   7   -7.03   18.94
   4  -5  -7  -58.42   18.69
  -4   5   7    8.11   16.78
   5   4  -7   11.55   16.39
  -5  -4  -7    1.64   12.63
  -4   5  -7    2.60   15.22
  -4   5  -7   18.95   18.83
  -4   5   7  -16.70   12.79
  -5  -4   7   -0.67   15.27
  -5  -4  -7   17.95   18.15
  -5  -4  -7    3.94   13.82
  -5  -4   7  -31.56   18.40
   5   5   0   25.80   10.33
   5  -5   0   76.01   12.15
  -5   5   0  101.30   12.27
  -5  -5   0   17.53    9.65
  -5  -5   0   32.57    9.69
   5  -5   0   83.47   13.44
   5   5   0   25.76    9.48
   5   5   0   11.54    6.48
  -5   5   0   56.71   12.79
  -5  -5   0    8.76    6.29
   5   5   0   15.68    5.98
  -5  -5  -2   77.47   11.95
   5   5  -2   98.26    9.22
  -5  -5  -2   88.61   12.03
   5   5  -2   97.61    8.28
  -5   5  -2  105.71    9.10
   5   5   2   87.97   11.19
   5  -5   2   91.83   11.14
   5  -5  -2  128.90   12.37
  -5   5  -2  103.08   14.98
  -5  -5   2   76.46    9.12
  -5  -5  -2  115.39   11.11
   5   5   2  103.06   12.70
  -5   5   2   70.45   12.57
  -5  -5   2   95.26    8.01
  -5  -5   2  108.42    9.20
  -5  -5   2   77.20    8.05
   5  -5   2  116.65   14.18
  -5   5   2  103.47    9.39
   5  -5  -2  109.49    9.94
  -5  -5  -4   13.75   13.09
  -5  -5  -4    3.23   11.60
  -5  -5  -4    4.00    9.51
  -5  -5   4    0.34    9.71
  -5   5   4    5.25   10.31
  -5   5  -4    5.30   13.67
  -5   5  -4    2.61    4.57
   5  -5  -4   13.54   12.52
  -5   5  -4  -11.60   12.83
  -5   5   4   12.21   12.58
   5  -5   4   -7.01   10.86
   5   5   4  -13.82   10.22
   5   5  -4  -21.57   10.64
   5   5   4   -4.33   12.93
  -5   5   4  -16.42   12.48
   5   5  -4   11.25    6.76
   5  -5  -4   -0.71    7.19
  -5  -5   4   10.30   11.26
   5  -5   4   -8.37   13.67
  -5   5  -6   22.52   16.05
  -5   5   6    9.41   11.94
   5   5  -6    7.58    9.29
  -5   5   6   26.81   15.19
  -5   5   6   32.29   17.88
   5  -5   6  -15.12   16.87
   5  -5  -6   39.88   15.91
  -5  -5  -6   -5.52   12.09
  -5  -5   6    8.59    6.56
  -5  -5   6   43.99   16.30
  -5  -5  -6   27.40   13.58
   5   5  -6   38.91   15.18
   5   5   6    4.98   11.82
   5  -5   6   17.94    6.22
  -5   5  -6   10.90   15.28
  -5  -5   6  -10.96   13.82
   5  -5  -6   -6.31    8.94
   5   5  -8   -5.02   17.92
  -5  -5   8   -7.74   17.03
  -5   5  -8   -4.33   17.06
  -5  -5   8    7.28   19.75
  -5  -5  -8    1.47   15.46
   6  -5  -1   72.30   10.01
  -5  -6   1   50.56    7.77
  -6   5   1   68.36   10.33
  -6   5  -1   62.62   10.30
   5   6  -1   64.77    9.37
  -5  -6   1   66.00    5.03
   5   6  -1   88.40    8.97
   6  -5   1   74.82   11.08
  -5  -6   1   56.64    5.92
  -5  -6   1   64.39    8.92
  -5  -6  -1   71.81   10.21
   5   6   1   66.27    9.79
   6  -5   1   70.85   11.06
   6  -5   3   64.23   12.00
  -5  -6  -3  109.85   11.43
   6  -5  -3   85.62   13.24
  -5  -6  -3   81.03   13.63
  -6   5  -3   84.48   15.25
  -5  -6   3   72.37    8.72
  -5  -6   3   80.33   10.96
   6  -5  -3   97.09   13.33
   5   6   3   81.47   13.44
  -5  -6   3   93.35    9.79
  -5  -6  -3   67.80   12.60
   6  -5  -3  103.83    9.00
   5   6  -3   89.62    8.94
   5   6  -3   81.52   10.77
  -6   5  -3   79.83    8.47
  -6   5   3   68.83   13.66
  -6   5   3   73.33    8.98
   5   6   3   77.55   11.61
  -6   5   3   68.11   13.00
  -5  -6   3   91.09    8.40
   6  -5   5    1.95   14.76
  -5  -6  -5   11.35   14.02
   5   6  -5    4.44    8.14
   6  -5  -5   25.19   13.63
   6  -5  -5   12.71    7.73
  -5  -6   5   15.43   12.61
   5   6  -5    7.42   12.43
  -6   5  -5    6.38    6.36
  -6   5   5   20.65   15.03
  -6   5   5   44.65   14.19
   5   6   5   -5.42   15.06
  -5  -6   5   15.43    6.11
  -5  -6   5   16.01    5.44
  -5  -6  -5   10.26   12.14
  -5  -6  -5   18.57   10.43
   6  -5   5   30.87   12.05
  -6   5  -5    1.24   14.38
  -6   5  -5   32.57   15.09
  -6   5   5   29.86   11.33
  -5  -6   5   23.93   11.04
   5   6   5   10.60   11.33
  -6   5  -7   -8.94   18.66
   5   6   7    5.27   13.39
   6  -5   7  -14.47   19.17
  -5  -6   7  -27.05   18.05
  -6   5  -7  -15.74   16.26
   5   6  -7  -36.97   16.91
  -5  -6   7   -8.99   15.32
  -5  -6  -7    4.72   14.03
  -6   5   7   -1.66   17.19
  -6   5   7    6.05   12.49
   6  -5  -7  -27.05   17.99
  -6   5   7   -7.93   19.55
  -5  -6  -7   20.42   13.43
   4   6   0   56.03   10.87
  -4  -6   0   76.31   11.18
  -6   4   0   91.06   11.43
   4   6   0   38.07    9.54
   6  -4   0   78.45   13.57
  -4  -6   0   51.14    7.89
  -6   4   0   79.33   13.16
  -4  -6   0   40.23    9.73
  -4  -6   2   -0.27    6.12
  -6   4   2   -1.74   10.76
   6  -4   2   -2.03   13.53
  -4  -6  -2   -0.65   10.68
  -4  -6   2   -0.73    5.57
  -6   4   2    1.23    6.90
  -4  -6  -2   12.27    9.00
   6  -4  -2   -3.99   10.63
  -6   4  -2   -5.34    7.83
   4   6  -2   -1.71    8.11
  -4  -6   2    2.81    8.17
   6  -4   2    3.95    9.40
   6  -4  -2   -5.90    7.23
  -4  -6  -2    7.01   10.91
  -6   4  -2    5.99   13.57
   6  -4  -2   -0.63   10.98
   4   6   2    2.83    9.70
   4   6   2   -5.02   10.78
   4   6  -2    4.84    8.04
   6  -4   2  -13.80   12.12
  -4  -6   2    4.91    8.11
  -4  -6   4  133.18    9.59
  -4  -6   4  133.10   12.76
  -6   4   4  148.19   15.74
  -6   4  -4  150.45   16.95
  -4  -6   4  159.29   14.74
   6  -4   4  152.60   11.45
  -6   4   4  143.01   13.80
  -4  -6   4  183.02   13.30
  -4  -6  -4  135.12   14.48
   6  -4   4  167.65   14.62
   6  -4  -4  163.92   15.59
  -6   4  -4  127.96   16.49
  -6   4  -4  167.95   10.36
   4   6  -4  140.02   14.10
   4   6   4  148.37   16.63
  -4  -6  -4  174.16   13.78
   4   6   4  160.33   13.78
   6  -4  -4  171.36   10.78
  -6   4   4  204.60   15.89
   4   6  -4  150.80   12.02
  -4  -6  -4  200.97   16.86
  -6   4  -6   83.39    9.20
  -4  -6  -6   72.87   14.40
   6  -4   6   69.51    9.49
  -4  -6   6  108.18   14.60
  -6   4  -6   65.74   16.18
  -4  -6   6   52.54    6.01
  -6   4   6   93.79   17.23
  -6   4   6   70.70   12.93
   6  -4  -6   53.44    8.99
  -4  -6   6   39.59   15.81
   4   6  -6   50.68   15.58
   4   6  -6   65.03   10.97
  -4  -6   6   41.34    5.33
  -4  -6  -6   67.86   13.74
   4   6   6   73.16   13.41
  -6   4   6   68.96   17.76
   6  -4   6   51.05   17.81
  -6   4  -6   71.33   18.56
   6  -4  -6  103.88   16.71
  -4  -6   8   -1.52   17.04
   4   6  -8  -15.45   18.25
  -4  -6   8    5.48   19.11
  -6   4  -8  -24.93   17.45
  -4  -6  -8   18.59   15.23
  -3  -6  -1  206.85   14.47
  -6   3  -1  208.93   15.73
  -3  -6   1  197.87   13.13
  -3  -6   1  211.72   12.27
  -6   3   1  185.48   13.63
   3   6   1  220.57   14.42
  -3  -6   1  220.34   14.89
   6  -3  -1  218.70   14.55
   6  -3  -1  209.28   15.96
   6  -3   1  212.87   15.48
  -6   3  -1  233.33   14.73
   3   6  -1  209.74   14.33
  -6   3  -1  221.29   14.39
   3   6  -1  187.37   12.64
  -3  -6  -3    0.81   12.36
   6  -3  -3    0.71   11.41
   6  -3   3    3.05    7.68
  -3  -6   3    4.90   10.44
   3   6   3   -5.09   12.53
   3   6   3   -3.55    9.99
  -3  -6   3   -3.03   10.49
   6  -3  -3   -6.45    5.80
   3   6  -3   -5.79   10.90
   6  -3   3    4.22   10.92
   3   6  -3   -1.60    8.95
  -6   3   3    3.51   11.75
  -6   3  -3    5.63    7.01
  -3  -6  -3   -4.80    9.93
  -6   3   3   12.65   11.92
  -3  -6  -3   -5.46   11.03
  -6   3  -3   -7.43   13.33
  -3  -6   5   12.19    3.12
  -6   3  -5   20.85   14.73
  -3  -6   5    8.98    3.64
   3   6   5   11.80   10.49
   3   6  -5   21.96   13.01
   6  -3   5   24.83    8.18
  -3  -6  -5    4.39   11.54
  -6   3   5   15.01   10.57
  -6   3  -5    4.20   14.05
  -6   3   5   26.09   14.74
   3   6  -5    5.87    9.74
  -3  -6   5   38.98   13.58
  -6   3   5   -1.72   13.11
   6  -3  -5   25.69   13.50
  -6   3  -5   12.62    7.22
   6  -3  -5   16.99    6.40
  -3  -6  -5  -11.37   11.02
   6  -3  -7   56.60   17.50
  -6   3  -7   49.51   16.18
  -3  -6   7   83.74   15.94
  -6   3  -7   57.13   18.71
  -6   3   7   90.62   18.40
  -6   3   7   54.09   12.95
  -3  -6  -7   77.26   19.36
   3   6   7   81.07   13.95
   6  -3   7   42.78   20.52
   3   6  -7   57.84   18.56
  -3  -6   7   53.76   18.91
  -3  -6  -7   48.35   14.86
  -6   3   7   75.80   19.86
   3   6   7   96.39   20.84
  -2  -6   0 6712.32  323.74
   2   6   0 6689.01  323.74
   6  -2   0 6607.14  324.12
   2   6   0 6498.68  324.01
  -6   2   0 6666.98  324.10
  -2  -6   2   80.70   10.09
   2   6   2   49.70   10.81
   2   6   2   68.20   11.85
  -6   2   2   76.97   11.80
  -2  -6  -2   45.02   11.72
  -2  -6  -2   82.12   10.19
   6  -2   2   60.74   10.89
   2   6   2   63.48   10.05
  -6   2   2   50.04    5.57
   6  -2  -2   56.46   11.18
  -2  -6   2   60.46    5.09
  -2  -6   2   92.68   10.28
  -6   2  -2   73.01   14.14
  -6   2  -2   73.86   12.18
   2   6  -2   61.25   10.18
   6  -2   2   56.65    9.28
   6  -2   2   83.19   11.79
   2   6  -2   82.49    9.39
  -2  -6  -2   67.71   10.75
   6  -2  -2   62.38    9.74
  -6   2   2   80.50   10.63
  -2  -6   4   36.14   11.79
   2   6   4   19.32    9.67
  -6   2   4   33.53   12.36
   6  -2  -4   23.61    4.86
  -6   2   4   32.84   12.25
  -2  -6  -4   47.25   11.33
  -6   2  -4   30.79   13.61
   6  -2  -4   33.43   11.68
   2   6  -4   27.17   11.85
  -6   2  -4   27.58    7.07
  -2  -6  -4   34.00   10.37
   2   6  -4   36.24   10.58
  -2  -6   4   30.06   10.88
   6  -2   4   45.92    8.51
  -6   2  -6   37.30   17.21
   6  -2  -6   72.03   15.74
  -6   2   6   29.79   15.70
  -6   2  -6   40.09    9.84
  -6   2   6   14.62   11.37
   2   6  -6   44.71   12.66
   2   6  -6   76.70   16.24
   6  -2  -6   42.30    7.62
  -2  -6  -6   42.80   13.38
   6  -2   6   39.55   18.54
  -2  -6   6   48.84   16.18
  -6   2  -6   36.55   15.67
  -2  -6  -6   73.45   13.36
   6  -2   6   37.27   10.12
  -6   2   6   24.81   17.32
   2   6   6   29.31   12.40
  -2  -6  -6   55.65   17.10
   6  -2  -6   32.63    8.00
  -2  -6   8    2.28   16.60
   2   6  -8   -7.17   19.04
  -6   2  -8   -2.28   17.45
  -6   2   8   18.53   20.33
  -2  -6   8  -11.28   20.25
   6  -1  -1  390.72   20.44
  -6   1   1  401.59   20.43
   6  -1  -1  391.42   20.85
  -1  -6   1  405.03   21.26
  -6   1   1  442.36   22.10
  -1  -6  -1  382.74   21.83
   6  -1  -1  319.85   22.20
   1   6  -1  363.84   19.78
   1   6   1  407.24   21.91
  -6   1  -1  379.19   22.12
  -1  -6  -1  357.84   21.78
  -1  -6   1  350.42   19.67
   6  -1   1  400.89   21.75
   1   6  -1  405.45   21.61
  -1  -6   1  406.33   21.97
   6  -1   1  387.54   21.80
  -6   1  -1  362.94   21.75
  -1  -6   3    3.32   11.43
  -6   1   3   16.01   11.43
  -1  -6   3   21.74   11.68
  -6   1   3   19.27   11.27
   6  -1   3   22.16   13.04
  -1  -6  -3   23.67   10.44
   1   6   3    8.18    9.89
   6  -1  -3    1.25   10.92
   1   6  -3   13.50   11.62
  -1  -6  -3    7.14    9.58
  -6   1  -3   -0.91   14.72
  -6   1  -3    7.23    7.89
   1   6  -3   15.72   10.26
   6  -1   3   14.84    8.63
  -1  -6  -5   24.28   13.91
  -1  -6   5   25.01   13.47
   1   6  -5   20.17   11.58
  -1  -6  -5   18.25   11.01
  -1  -6  -5   17.70   10.90
   6  -1  -5   13.28    5.94
   6  -1  -5   30.93   13.01
  -6   1   5  -11.38   13.94
  -6   1   5   26.55   13.01
  -6   1   5    5.86    9.64
  -6   1  -5   17.76    7.99
  -6   1  -5   17.27   14.24
   1   6   5   25.58   10.54
   1   6  -5   13.26   13.67
   6  -1  -5   14.81    5.06
  -1  -6   7   13.80   18.12
   6  -1   7    3.19   11.00
  -6   1  -7   16.49   18.54
  -6   1   7   19.64   16.54
  -1  -6  -7   -2.80   13.08
  -6   1   7   -2.16   11.26
  -6   1   7  -13.28   18.41
   1   6  -7  -13.13   13.44
   1   6  -7   37.28   17.83
   6  -1   7  -26.60   20.30
  -1  -6  -7  -18.34   18.05
  -6   1  -7    9.23   15.35
   6  -1  -7   17.01   16.06
   1   6   7  -11.44   13.04
   1   6   7  -35.08   19.54
   0  -6   0 9771.38  472.30
   6   0   0 9716.89  472.74
   0  -6   0 9793.61  472.61
   6   0   0 9449.83  472.34
   0   6   0 9878.86  472.61
   0   6   0 9999.00  472.33
  -6   0   0 9241.49  472.67
   6   0  -2   13.09    8.32
   0   6  -2   16.24   10.79
   6   0   2   10.94   10.62
   0  -6  -2   14.21    9.56
   0   6   2    5.22    9.60
   0   6  -2    8.31   10.28
  -6   0  -2    6.05   11.05
   0  -6  -2   23.44   10.27
   6   0   2   12.14    8.80
   6   0  -2   22.59    9.45
  -6   0  -2   31.92    8.37
  -6   0   2    2.84   10.45
   0   6   2   18.45   11.24
   0   6   2    9.36    9.26
  -6   0   2    5.81    8.69
   0  -6   2   16.82   10.23
   0  -6   2   10.79   11.39
   0  -6  -4  -10.49   12.08
  -6   0   4   14.96   12.03
   0  -6  -4   -0.39   10.35
   6   0   4   -6.20   12.55
   6   0   4  -18.42    8.94
  -6   0   4   14.29   11.89
   0  -6  -4    9.39    9.71
   0   6  -4   18.07   12.06
  -6   0  -4   -2.34    7.82
   0   6  -4   -2.73   12.48
   0  -6   4   -7.70   12.07
   6   0  -4    1.60   11.23
   0   6   4  -13.81   10.13
   6   0  -4    4.14    2.89
   0  -6   6   -7.60   16.10
  -6   0  -6   15.74   10.11
  -6   0  -6   26.54   16.18
   0   6  -6   14.35   13.34
  -6   0   6   -2.06   16.44
   0   6   6    8.68   11.09
  -6   0  -6  -15.22   14.98
   6   0  -6    6.61    7.32
   6   0  -6   13.54   14.58
   0  -6  -6   12.08   15.81
  -6   0   6    3.15   14.44
   0   6  -6    4.80   15.62
   6   0   6    1.88   10.36
   0  -6  -6    0.95   12.20
   0   6   6    4.69   17.29
   6   0  -6   12.35    6.29
  -6   0   6   14.63   10.30
   6   0  -8    9.29   17.92
  -6   0  -8  -11.67   17.39
  -6   0   8   -7.63   20.00
  -6   0   8    3.42   17.80
   1  -6   1  174.18   12.91
   6   1   1  135.57   11.62
  -6  -1   1  157.28   12.15
   1  -6   1  171.51   13.26
   6   1   1  145.76   12.44
  -1   6   1  132.26   11.89
   6   1   1  139.94   12.55
  -1   6   1  141.49   12.74
  -1   6  -1  151.47    9.52
  -1   6  -1  157.82   13.88
   1  -6  -1  145.38   12.25
  -1   6  -1  145.98    9.89
   1  -6   1  156.07   10.10
  -6  -1  -1  126.55   12.16
   6   1  -1  137.42   12.06
   1  -6  -1  147.96   11.82
   1  -6  -3  657.02   32.44
  -1   6  -3  620.99   33.88
  -1   6   3  612.66   32.98
   6   1   3  606.35   32.31
   1  -6   3  645.20   34.08
   1  -6   3  604.02   33.59
  -1   6  -3  635.78   33.68
   6   1   3  614.91   34.13
  -6  -1  -3  626.91   33.92
  -6  -1   3  605.77   32.97
  -1   6   3  622.33   32.71
   1  -6  -3  633.75   32.99
  -6  -1   3  604.02   32.87
   1  -6  -3  499.50   33.57
   6   1  -3  618.02   32.63
  -6  -1  -3  551.82   31.93
  -6  -1   5   41.52    9.14
   6   1  -5   21.84    5.78
  -1   6  -5   39.51   13.53
  -1   6   5   68.01   13.88
   1  -6  -5   40.94   10.68
  -1   6   5   49.58   10.97
   6   1  -5   32.05    5.07
   6   1  -5   34.25   12.50
   1  -6  -5   22.25   13.21
  -6  -1  -5   44.11    9.31
  -6  -1   5   73.68   13.98
   6   1   5   47.78   10.13
  -1   6   5   12.34   14.66
   1  -6   5   12.18   13.59
  -6  -1   5   29.64   12.43
  -1   6  -5   56.12   13.37
  -6  -1  -7    5.13   15.51
   6   1   7   -0.93   19.13
   6   1   7    7.60   11.65
   1  -6  -7    2.47   17.68
  -1   6   7    7.40   17.53
  -1   6  -7   19.76   18.24
  -6  -1  -7  -13.78   18.36
  -6  -1   7    0.81   18.42
  -1   6   7    3.65   19.28
  -1   6   7    6.46   12.02
   1  -6  -7    2.01   11.83
  -6  -1  -7  -14.38   11.75
  -6  -1   7    1.83   10.08
  -1   6  -7  -10.15   14.37
  -6  -1   7  -13.77   15.85
   6   1  -7    7.19   16.53
   1  -6   7   -5.84   18.13
  -6  -2   0  476.70   23.31
   6   2   0  459.52   24.54
   6   2   0  397.68   25.14
  -2   6   0  463.27   24.62
  -2   6   0  455.64   24.75
   2  -6   0  477.63   24.68
  -6  -2   0  448.56   24.38
  -6  -2  -2  449.26   26.81
  -2   6  -2  475.76   27.82
  -2   6   2  528.81   26.71
  -2   6  -2  517.93   27.24
   2  -6   2  476.62   27.93
   2  -6  -2  480.66   26.12
  -6  -2   2  448.28   25.55
   2  -6   2  484.61   25.57
   2  -6   2  499.29   27.26
   6   2  -2  471.96   25.21
  -6  -2  -2  534.00   26.31
  -2   6   2  446.29   26.01
   6   2   2  461.08   26.18
  -6  -2   2  487.32   25.91
   6   2   2  456.78   26.69
  -2   6   2  486.92   26.81
   6   2  -2  452.60   25.73
   2  -6  -4   45.84    9.81
  -2   6  -4   37.11   13.02
   2  -6  -4   44.84   12.37
   6   2  -4   40.70    3.67
  -2   6   4   50.41   11.35
  -2   6  -4   27.26   13.56
  -2   6   4   34.23   13.68
  -6  -2   4   39.85   12.01
  -6  -2  -4   30.49    8.64
   6   2   4   28.64   13.05
   6   2   4   20.36    9.71
  -6  -2   4   31.68   11.48
   2  -6   4   33.26   13.18
  -6  -2  -4   30.08   13.23
   6   2  -4   74.39   11.40
  -2   6   6   10.84   17.84
   6   2  -6   -5.57    6.93
   6   2  -6    8.28    5.97
  -2   6   6   18.41   15.27
  -2   6  -6  -13.49   14.71
   2  -6  -6    2.12   11.17
  -6  -2   6    4.66   16.05
  -6  -2  -6    4.69   10.81
   2  -6   6   -9.33   16.47
  -2   6   6   -9.27   11.84
   2  -6  -6   -2.12   16.19
  -6  -2   6    5.40   13.97
  -6  -2   6   -2.55    9.62
   6   2   6   16.16   11.43
  -2   6  -6    5.71   15.61
   6   2  -6  -10.80   14.47
  -6  -2  -8  -10.48   15.10
  -6  -2   8   -0.93   19.77
  -6  -2   8    2.47   17.19
   6   2  -8  -16.50   17.88
  -6  -2  -8    7.30   17.99
  -3   6   1 2116.63  102.74
  -3   6  -1 2018.71  102.15
   6   3   1 2102.97  102.46
   6   3  -1 2098.66  102.10
  -6  -3  -1 2176.78  102.71
   3  -6  -1 2121.73  102.68
  -3   6  -1 1985.87  103.21
   3  -6  -1 2082.13  102.57
   3  -6   1 2062.45  102.17
  -6  -3   1 2084.87  101.77
  -6  -3   1 2067.17  101.97
  -3   6   1 2017.15  102.51
  -6  -3   1 2116.14  102.50
  -6  -3  -1 2072.94  102.30
   6   3   1 2058.55  102.26
  -3   6   3  734.39   37.38
   3  -6   3  736.04   38.21
   6   3   3  693.26   37.87
   6   3  -3  680.77   36.47
  -6  -3   3  716.80   36.82
   6   3   3  730.17   37.06
  -3   6  -3  723.72   38.63
  -3   6   3  623.18   38.12
  -6  -3   3  717.38   36.75
  -3   6  -3  715.79   38.34
  -6  -3  -3  685.01   36.42
   3  -6  -3  681.87   36.42
   3  -6   3  673.04   36.55
  -3   6   3  689.41   36.43
   3  -6  -3  685.39   37.69
   3  -6   3  699.86   38.49
  -6  -3  -3  678.90   38.00
  -3   6   5   35.82   10.98
   6   3  -5   31.36    5.80
  -6  -3   5   46.61   12.14
  -3   6  -5   30.67   14.63
  -6  -3   5   31.33    8.18
  -6  -3  -5   35.93    9.82
  -3   6   5   58.63   14.96
  -3   6   5   31.80   13.50
   3  -6   5   34.74   13.98
   3  -6  -5   34.32    9.64
   3  -6  -5   49.69   13.50
   6   3   5   37.40   13.83
  -3   6  -5   14.73   13.98
  -6  -3   5   35.90   13.69
   6   3   5   40.01   10.89
   6   3  -5   62.47   12.73
  -3   6   7   43.91   17.74
  -6  -3  -7   29.80   12.78
  -3   6   7   24.99   12.79
  -3   6   7   10.82   19.61
  -3   6  -7   40.27   19.07
   3  -6  -7   36.74   17.74
   3  -6   7   -0.86   17.87
   6   3  -7   55.84   16.42
   3  -6  -7   20.39   11.11
   6   3   7   21.58   12.38
  -6  -3   7    9.46   18.34
  -3   6  -7    8.19   15.26
  -6  -3  -7   21.15   14.90
  -6  -3   7   -4.16   15.70
   6   4   0  213.16   14.77
   4  -6   0  351.57   17.72
   6   4   0  206.00   16.49
  -4   6   0  368.72   17.96
  -6  -4   0  243.42   15.77
  -4   6   0  395.21   19.95
  -6  -4   0  228.44   14.95
  -6  -4   0  230.46   13.19
   6   4  -2  722.95   35.38
   6   4  -2  670.58   34.55
  -4   6   2  674.06   37.08
  -4   6  -2  668.11   38.14
   4  -6   2  700.09   38.15
  -6  -4   2  654.98   34.47
  -6  -4   2  700.55   35.63
   4  -6   2  668.49   35.87
  -4   6   2  613.45   36.75
   6   4   2  724.00   36.78
   4  -6  -2  676.01   35.69
   6   4   2  662.10   36.70
  -4   6   2  726.02   36.77
   4  -6  -2  691.12   36.73
  -4   6   2  667.04   35.80
  -6  -4   2  686.96   35.21
   6   4  -2  758.49   35.06
  -6  -4   2  721.05   35.16
  -6  -4  -2  732.71   36.33
  -4   6  -2  745.15   37.23
  -6  -4  -2  686.22   36.72
  -4   6   4  188.04   16.77
   6   4   4  174.58   16.85
   6   4  -4  146.61   13.58
  -4   6   4  122.48   14.68
  -6  -4   4  169.30   14.61
   4  -6   4  171.38   14.96
  -4   6  -4  177.17   16.92
  -6  -4   4  154.99   13.46
   4  -6  -4  180.17   16.44
   6   4  -4  137.68    8.93
  -6  -4  -4  168.48   12.55
   6   4   4  167.70   13.57
   4  -6  -4  163.34   11.95
  -6  -4  -4  177.30   16.14
  -4   6  -4  171.77   17.14
   4  -6   4  203.06   13.92
  -4   6   4  213.16   14.30
  -4   6   6   13.62   15.53
  -4   6   6    5.37   16.95
  -4   6   6    6.64   12.20
   6   4   6    7.85   12.01
  -6  -4  -6   -8.03   14.10
   4  -6   6   14.85   16.24
   4  -6  -6   -0.70   15.93
  -6  -4   6   -8.44   15.40
  -6  -4  -6   -4.29   11.64
  -6  -4   6   -2.85    8.15
   6   4  -6  -10.70    7.09
  -4   6  -6  -27.62   17.32
   6   4  -6  -34.99   15.38
   4  -6  -6   25.25   10.41
   6   4   6  -17.63   17.94
  -6  -4   6   -9.11   13.93
  -4   6  -6    2.50   15.69
  -6  -4  -8   -3.79   15.21
  -6  -4   8   -5.45   19.85
  -6  -4  -8   -1.72   19.02
  -6  -4   8   13.44   17.25
   6   4  -8   -8.18   18.32
   5  -6  -1  336.24   24.21
  -6  -5   1  428.33   22.46
  -6  -5   1  425.93   21.73
  -5   6  -1  423.63   23.45
   6   5  -1  430.24   22.11
   6   5  -1  414.24   23.50
   6   5   1  397.05   23.05
   6   5  -1  477.87   22.93
  -5   6   1  400.98   24.17
   5  -6   1  471.95   23.88
   5  -6  -1  401.29   23.78
  -6  -5  -1  448.76   23.22
  -5   6   1  394.35   23.57
   5  -6  -3  544.05   31.73
  -6  -5   3  542.52   29.55
   5  -6   3  572.22   30.71
  -6  -5   3  551.67   28.97
   5  -6   3  544.39   33.08
  -6  -5  -3  541.95   30.39
  -6  -5   3  575.59   29.80
   6   5   3  570.01   32.20
   6   5  -3  544.44   28.57
   6   5  -3  559.51   29.93
  -6  -5  -3  560.37   31.77
  -5   6  -3  551.61   33.01
  -5   6  -3  556.44   28.55
  -6  -5   3  631.09   30.28
  -5   6  -3  592.01   32.65
   6   5   3  584.54   31.01
  -6  -5  -3  579.43   31.74
  -5   6   3  553.06   31.08
   5  -6  -3  566.05   29.74
  -5   6   3  561.05   29.72
   5  -6   3  507.01   31.51
  -5   6   3  612.76   32.32
   6   5   5   86.32   16.76
   6   5  -5   81.01   14.06
   5  -6  -5   91.53   15.41
   6   5   5  123.67   13.54
  -6  -5   5  104.69   14.57
  -6  -5   5   71.52    8.73
  -5   6   5  121.69   16.71
  -5   6   5  120.13   15.22
  -5   6  -5   98.78   15.89
   6   5  -5   98.76    8.53
  -6  -5  -5   85.38   16.27
  -6  -5  -5   99.90   12.00
   5  -6   5  107.55   16.20
  -5   6  -5   90.21   16.49
  -6  -5  -5  103.63   14.46
   5  -6  -5  121.28   10.73
   5  -6   5  108.11   13.51
  -5   6  -5   71.85    6.55
  -5   6   5   98.05   13.28
  -6  -5   5  110.11   13.70
  -6  -5   7    7.28   15.71
   6   5   7   26.92   13.53
   6   5  -7    7.76   15.67
  -5   6  -7    7.08   19.39
  -6  -5  -7    0.70   14.52
  -5   6   7   -3.38   13.01
  -5   6   7   -1.80   19.61
   5  -6   7  -26.67   18.59
  -5   6  -7   -6.22   15.60
  -6  -5  -7    0.58   12.98
   5  -6  -7   24.39   17.75
  -5   6   7   10.87   17.22
  -6  -5   7   31.56   18.00
   6  -6   0 1085.71   57.19
   6   6   0 1198.27   55.95
   6   6   0 1078.96   57.03
  -6  -6   0 1063.53   56.93
   6  -6   0 1084.51   57.65
  -6  -6   0 1150.55   55.73
  -6   6   0 1090.42   57.56
  -6  -6   0 1185.45   56.87
   6   6   0 1040.97   57.04
  -6   6   0 1184.90   57.10
  -6   6  -2   57.12    8.62
   6  -6   2   76.61   14.37
   6  -6  -2   65.85   11.87
  -6  -6  -2   37.37   11.30
  -6   6  -2   62.43   10.33
  -6  -6   2   68.16    7.79
  -6  -6  -2   95.38   11.41
  -6   6   2   60.06    9.76
   6   6  -2   56.33    8.18
   6  -6  -2   85.83    9.89
  -6  -6   2   61.41    8.92
  -6   6  -2   67.53   14.53
  -6  -6   2   56.48    7.16
  -6  -6  -2   55.19   12.11
   6  -6   2   80.78   10.99
  -6  -6   2   56.99    7.94
   6   6  -2   71.31    8.00
   6   6   2   68.26   12.06
   6   6   2   66.16   10.83
  -6   6  -4   10.39   14.35
  -6  -6   4   -3.65    8.94
  -6   6   4   -3.18   12.64
   6  -6   4   -5.47   12.48
  -6  -6   4    0.23    7.53
   6  -6  -4    6.12   12.43
  -6  -6   4   -4.77    7.17
   6   6  -4    6.32    6.54
  -6   6   4   15.04   11.59
   6   6  -4    6.95   10.37
   6  -6  -4   12.70    7.76
  -6  -6  -4   -5.92    9.88
  -6   6  -4    9.41   13.57
  -6  -6   4    4.19   10.88
  -6  -6  -4   12.06   12.10
  -6   6  -4    5.17    5.36
  -6   6   4  -13.22   13.75
   6  -6   4   -4.28   11.07
   6   6   4    8.95   13.74
  -6  -6  -4   -2.10   12.92
   6   6   4   -0.42    9.93
   6   6   6   12.96   12.70
   6   6  -6   -4.76   14.21
  -6  -6  -6   -0.76   16.48
  -6   6   6    9.56   15.80
   6  -6  -6    4.02    9.27
   6   6   6   19.61   17.58
  -6  -6   6  -12.60   15.09
  -6   6  -6   10.96   15.42
  -6  -6  -6   16.53   13.80
  -6  -6   6  -31.16   14.13
  -6   6  -6    7.17    4.98
  -6   6  -6   -9.31   17.69
  -6  -6   6   -1.72    6.23
  -6   6   6  -15.33   17.76
  -6  -6   6   -0.23    7.06
  -6   6   6    4.83   12.34
   6   6  -6   -3.31    7.78
  -6  -6  -6   -1.58   12.08
   6  -6   6   -0.61   13.74
   6  -6  -6    0.71   15.80
   6  -6   6  -10.83   16.92
  -6   6  -8  -14.51   17.39
  -6  -6   8  -53.27   20.35
   6   6  -8   -2.45   18.19
  -6  -6  -8    0.78   16.10
  -6  -6   8   18.90   17.12
  -6  -7   1  602.69   30.55
   7  -6   1  522.55   32.77
   6   7  -1  576.89   30.56
   6   7   1  579.20   31.78
  -7   6  -1  583.91   31.19
  -6  -7   1  563.10   28.87
  -6  -7  -1  588.29   30.69
   6   7   1  563.64   30.51
   7  -6   1  527.66   31.69
  -6  -7   1  611.93   30.18
  -7   6   1  567.94   31.59
  -7   6   1  520.72   31.16
   7  -6   1  577.53   31.34
   7  -6  -1  569.57   31.34
  -6  -7   1  592.14   28.64
   6   7  -1  597.85   30.75
   7  -6  -3  286.11   18.84
  -6  -7   3  271.91   16.33
  -7   6  -3  241.40   15.25
   6   7   3  266.92   17.63
  -6  -7  -3  246.29   18.83
   7  -6  -3  240.57   15.68
  -7   6   3  269.79   19.29
  -6  -7   3  257.38   16.04
   7  -6   3  273.75   17.95
  -6  -7  -3  257.13   17.16
  -7   6   3  262.88   15.54
   6   7  -3  260.06   15.34
   6   7  -3  242.91   16.30
  -6  -7  -3  254.85   18.58
  -7   6  -3  250.59   20.61
   7  -6   3  240.24   20.49
   6   7   3  269.74   19.41
  -6  -7   3  237.43   14.79
  -6  -7   3  242.19   15.16
   7  -6  -3  231.12   18.91
   7  -6   5   -3.37   15.62
  -7   6  -5   -5.11    5.87
   6   7  -5  -12.86    7.78
  -6  -7   5   25.40   10.84
   6   7   5  -15.32   15.16
  -7   6   5    4.52   13.60
   7  -6   5    2.68   12.17
  -6  -7  -5    6.48   14.45
  -7   6   5    2.03   12.13
  -7   6  -5    0.67   14.77
  -6  -7  -5  -12.21   12.93
   7  -6  -5  -16.47   14.26
  -6  -7  -5   -0.48   10.90
  -7   6  -5   -8.74   15.42
   7  -6  -5   -4.63    7.93
   6   7   5    1.51   11.93
  -6  -7   5   -2.50   12.45
  -7   6   5   -4.51   14.68
  -6  -7   5   -2.32    6.16
   6   7  -5   29.33   12.85
  -6  -7   7   33.84   15.04
  -7   6  -7   20.55   17.04
   6   7   7   47.36   20.90
   7  -6   7   28.53   19.87
   6   7   7   15.03   14.22
   6   7  -7   20.55   16.66
  -6  -7  -7   23.73   15.40
  -7   6   7   -2.69   20.28
  -6  -7   7   19.57   17.31
  -6  -7  -7   31.40   14.05
   7  -6   7   40.40   16.76
   7  -6  -7   34.18   18.09
  -7   6  -7   37.41   20.18
  -7   6   7   52.09   18.90
  -7   6   7   45.05   14.71
  -5  -7   0   -3.77    9.53
  -7   5   0  -16.56   10.34
  -7   5   0   16.48   11.32
   7  -5   0    1.28   12.15
   5   7   0   -9.32   10.29
   5   7   0   -0.48    9.07
   7  -5   0  -11.67   11.13
  -5  -7   0   -7.47    6.94
   5   7   0   -6.92    5.74
  -5  -7   0  -10.17   10.20
  -7   5  -2  613.42   37.01
  -5  -7  -2  675.41   35.91
   7  -5  -2  696.25   35.55
   7  -5  -2  650.55   34.36
  -7   5  -2  728.78   35.30
  -5  -7   2  672.04   33.77
   5   7  -2  607.46   33.96
   7  -5  -2  597.30   35.60
  -5  -7   2  652.49   33.16
   5   7  -2  648.23   34.19
   7  -5   2  645.98   35.92
   5   7   2  655.27   35.67
  -5  -7  -2  658.05   35.05
  -5  -7   2  693.87   34.48
   5   7  -2  672.45   33.99
  -7   5  -2  682.26   34.43
  -5  -7   2  720.16   34.00
   7  -5   2  656.34   35.33
   5   7   2  631.10   35.20
  -5  -7  -2  659.63   35.51
  -7   5   2  647.54   34.07
   5   7   4   17.98   10.92
  -5  -7  -4   25.20   10.01
  -7   5   4    4.08   12.79
  -5  -7   4   19.17    8.86
   5   7  -4   11.11   10.73
  -7   5  -4   25.61   14.52
   5   7   4   -7.92   13.83
  -5  -7   4   16.00    9.73
   7  -5   4   17.66   11.18
  -7   5   4   31.10   11.40
  -5  -7  -4   -8.34   11.38
  -7   5  -4    9.46    6.60
   5   7  -4   18.98    7.65
  -5  -7   4   12.48    5.40
  -7   5   4   29.16   12.38
   7  -5  -4    8.88   13.10
   7  -5  -4    5.38    7.24
  -5  -7   4    7.02   10.76
  -5  -7  -4    7.44   12.65
   7  -5   6   37.76   17.28
  -7   5  -6   15.79    7.64
  -7   5  -6    1.42   15.95
   5   7   6   27.88   17.53
  -5  -7   6    7.11    3.75
  -5  -7  -6   22.93   13.78
  -5  -7   6   -3.80   14.90
   7  -5  -6   35.10   16.55
  -7   5   6    7.26   16.45
  -7   5   6   35.78   13.00
  -5  -7  -6   -8.28   12.38
  -5  -7   6    0.64    4.13
   7  -5   6   34.53   14.42
   5   7  -6    9.19   15.12
   5   7   6   22.54   13.03
   7  -5  -6   23.85    8.46
  -7   5   6   29.93   17.42
  -5  -7   6   29.47   13.33
   5   7  -6   33.08    9.57
  -7   5  -6    9.40   17.95
   5   7  -8  -20.96   18.95
  -5  -7   8   -1.78   19.37
  -5  -7   8   -5.93   16.50
  -7   5  -8   -7.17   17.44
  -5  -7  -8   -3.76   14.98
   4   7   1  982.79   48.80
   7  -4   1  943.85   49.26
   4   7  -1  987.73   48.28
   4   7  -1  997.61   48.61
  -7   4   1  912.57   48.65
   7  -4   1  865.62   50.16
  -4  -7   1 1004.25   47.90
   7  -4  -1  923.36   48.87
  -7   4  -1  875.30   49.09
  -4  -7  -1  915.69   48.79
   7  -4   1  917.65   49.24
  -7   4  -1  889.95   49.20
  -4  -7   1 1026.25   48.77
  -4  -7   1 1047.72   48.13
  -7   4   3  -11.49   12.27
  -4  -7   3    5.45    4.79
   4   7  -3    6.13    8.48
   4   7  -3    5.31   10.01
   7  -4  -3    0.80   12.08
  -4  -7   3    4.47    6.20
  -4  -7  -3   -5.07   13.01
  -4  -7  -3   14.33    9.55
   7  -4   3   11.59   10.93
  -4  -7   3   15.58    9.93
  -4  -7  -3   -2.45   10.98
  -7   4  -3  -12.24   14.99
   4   7   3    0.89   13.20
  -4  -7   3   15.53   10.13
   7  -4  -3    3.73    6.98
  -7   4   3    9.86    6.20
   4   7   3   -4.67   10.68
  -7   4   3    6.53   12.17
  -7   4  -3   -7.99    7.68
   7  -4  -3   32.54   11.75
   7  -4   3   -3.99   12.19
  -4  -7   5   -3.72    2.74
  -7   4  -5   -9.80    7.12
  -4  -7   5    0.52   13.27
   4   7   5   -6.15   11.04
   7  -4  -5   -9.53    6.41
  -7   4   5   -4.86   14.67
   4   7  -5    0.51   12.69
  -4  -7  -5    3.79   13.41
  -4  -7   5   11.41   10.75
  -4  -7  -5   13.27   12.54
   7  -4   5   -6.02   12.34
  -7   4  -5  -10.55   15.08
   4   7   5   -6.83   14.35
  -7   4   5    1.83   10.82
  -7   4   5    1.81   13.56
   7  -4  -5  -27.19   13.85
   7  -4   5   -2.75    8.29
   4   7  -5    6.31    8.93
  -4  -7   5    1.62    3.02
  -7   4  -5   16.75   14.77
  -4  -7  -5    5.26   11.28
  -4  -7   7  -16.20   14.98
  -4  -7  -7   20.67   13.67
  -7   4   7   23.07   13.24
  -4  -7   7   28.59   17.27
   7  -4   7  -17.54   20.01
  -7   4   7   29.46   17.77
   4   7  -7  -16.40   16.94
   7  -4   7   -8.29   16.27
  -7   4  -7    9.71   17.26
   4   7   7   -1.20   13.57
  -7   4   7  -54.32   20.08
  -7   4  -7    3.59   19.42
   7  -4  -7   -1.55   17.20
  -4  -7  -7    2.65   14.16
  -3  -7   0   -4.80    8.64
   3   7   0    2.92   11.09
  -7   3   0    0.26   11.05
  -3  -7   0   -8.09   10.41
   3   7   0   10.01    8.98
   7  -3   0   -6.54   11.42
  -7   3   2   73.60   12.57
   7  -3  -2   46.36   11.50
   7  -3  -2   52.19   10.87
   3   7  -2   60.99    9.68
  -7   3  -2   67.83    9.27
   3   7  -2   50.46    6.89
  -3  -7   2   61.69    6.43
  -3  -7   2   52.33    9.86
   3   7   2   73.58   11.85
  -3  -7  -2   62.52   11.09
   7  -3   2   90.35   13.05
  -3  -7   2   58.23    9.32
   3   7  -2   61.51    9.88
  -7   3  -2   71.09   13.76
  -3  -7  -2   62.80   11.81
  -7   3  -2   41.78   14.50
   3   7   2   53.05   10.59
   7  -3   2   64.80   11.45
   3   7   2   59.39   11.74
  -7   3   2   51.31    6.85
  -3  -7  -2   54.61   10.51
   7  -3  -2   57.01    7.85
   3   7  -4    5.96    9.33
  -3  -7  -4   -1.34   10.73
  -7   3  -4   -4.61    7.21
  -7   3   4   -5.19   12.28
  -3  -7   4  -11.61   11.32
   7  -3  -4   -8.78    4.89
   3   7   4   -6.08   10.97
  -3  -7  -4   10.97   13.07
  -3  -7   4  -16.27   10.86
   7  -3  -4  -17.08   11.67
   3   7   4   13.38   12.62
   7  -3   4   12.85   11.59
  -3  -7  -4    0.41   10.02
   3   7  -4    5.83   11.19
   7  -3   4   -1.08    8.20
  -7   3   4   -3.47   12.61
  -7   3  -4   -2.87   13.54
   7  -3   6   83.43   18.11
   7  -3  -6   64.03    7.37
   3   7  -6   71.37   11.83
   7  -3  -6   53.47    7.66
   7  -3   6   69.71   10.68
  -7   3   6   50.51   16.22
  -7   3  -6   39.00   16.56
  -3  -7  -6   56.34   13.35
  -3  -7   6   63.48   16.57
  -3  -7  -6   73.53   14.54
   7  -3  -6   73.25   15.83
  -7   3   6   77.28   18.11
  -7   3   6   62.24   12.79
   3   7  -6   52.19   15.95
  -7   3  -6   59.09   17.52
   3   7   6   43.03   13.09
  -7   3  -6   53.20    9.73
  -7   3  -8    3.98   17.36
  -3  -7   8   -1.84   19.39
   3   7  -8  -14.13   18.82
  -3  -7   8   11.88   17.07
   2   7   1 1215.82   60.42
  -2  -7  -1 1182.82   60.46
  -7   2   1 1244.66   60.61
  -7   2  -1 1187.95   60.27
   2   7  -1 1227.34   60.35
  -2  -7   1 1150.87   60.43
  -2  -7  -1 1053.43   60.66
   7  -2  -1 1237.31   60.72
  -2  -7   1 1243.20   59.86
   2   7  -1 1218.30   59.47
  -7   2   1 1167.86   59.91
  -2  -7   1 1210.72   59.39
   7  -2  -1 1207.86   59.94
  -7   2  -1 1239.58   60.48
   7  -2   1 1187.88   60.47
   2   7   3   61.53   11.22
   2   7  -3   67.61   11.80
   7  -2  -3   95.69   12.70
  -7   2  -3   57.06   13.43
   7  -2  -3   59.59   11.79
  -2  -7  -3   55.63   11.54
  -2  -7  -3   59.86   10.54
   2   7   3   68.05   13.79
   7  -2   3   52.68    9.74
   7  -2   3   72.99   12.64
   2   7  -3   59.63   10.85
  -7   2  -3   55.68    8.93
  -2  -7  -3   60.10   13.35
   7  -2   3   65.88   13.29
  -7   2   3   76.59   12.58
  -7   2   3   55.83   12.05
  -2  -7   3   78.30   11.66
  -2  -7   3   66.70   11.76
  -7   2  -3   64.89   15.10
   7  -2  -5   72.67    6.16
  -7   2   5   84.09   11.94
   7  -2   5   97.23   10.41
   2   7   5  103.62   12.43
   7  -2  -5   58.29    6.43
   2   7  -5  102.97   14.97
   2   7  -5   70.47   12.21
  -7   2   5  122.43   15.62
  -2  -7  -5   74.43   12.78
  -7   2  -5   61.55   15.27
  -7   2   5   97.24   14.95
  -2  -7   5   65.97   14.21
  -7   2  -5  103.16    9.55
   7  -2  -5   83.46   14.46
  -2  -7  -5  108.92   12.80
  -2  -7  -7   -3.62   12.96
   2   7   7   13.12   20.09
   2   7  -7    0.78   17.70
   2   7   7   15.65   13.32
   7  -2  -7   17.12   16.65
   2   7  -7   -5.82   12.61
  -7   2  -7   26.22   16.43
  -2  -7   7  -16.70   18.17
  -7   2   7   27.47   18.77
   7  -2   7   20.42   19.96
  -7   2   7   16.78   12.05
  -7   2   7  -25.89   17.63
  -2  -7  -7   17.83   17.60
  -7   2  -7   23.04   18.20
  -7   1   0    6.45   11.50
   1   7   0   22.20    6.54
  -1  -7   0   23.31    8.66
   1   7   0   12.68    8.50
   7  -1   0   29.93    8.54
   1   7   0   19.59   10.81
   7  -1   0    7.22   10.59
  -7   1   2  121.05   12.88
   7  -1   2  109.73   11.11
  -1  -7  -2  140.36   11.95
   1   7   2  138.09   12.71
  -7   1   2  101.73   11.45
  -1  -7   2   87.74    6.25
  -1  -7  -2  125.11   12.10
  -7   1  -2  114.55   10.53
   1   7   2  123.90   14.03
  -1  -7   2  112.03   12.74
   7  -1   2  112.88   12.73
   7  -1  -2  108.90   11.03
   1   7  -2  123.26   11.50
  -1  -7  -2  141.10   13.51
   1   7   2  111.65   11.51
  -1  -7   2  130.73    8.55
  -1  -7   2  136.58   12.24
   7  -1  -2  105.40   12.18
  -7   1  -2  113.71   13.53
   1   7  -2  137.00   11.85
  -7   1   4   18.99   11.78
  -7   1  -4    3.94    7.54
  -1  -7   4  -10.33   11.31
   7  -1   4   11.67   12.74
  -1  -7  -4    0.42   10.31
  -7   1   4    7.03   12.23
  -7   1  -4    0.57   13.68
   1   7  -4    6.26   11.35
  -1  -7  -4    7.59   10.37
   1   7   4  -15.52   10.38
   7  -1   4    5.56    9.09
  -1  -7   4  -11.08   11.18
   1   7  -4    3.59   12.33
   7  -1  -4    1.64   11.21
   7  -1  -6   36.82    5.57
   1   7  -6   70.25   16.91
  -1  -7  -6   39.94   13.73
  -1  -7   6   62.93   16.74
   7  -1  -6   30.32    6.27
  -7   1  -6   64.84   10.46
   1   7   6   71.73   18.65
  -7   1   6   44.37   11.75
  -7   1  -6   46.62   16.47
   1   7  -6   36.98   13.79
   1   7   6   67.61   12.93
   7  -1  -6   72.39   15.44
  -1  -7  -6   50.13   16.32
  -7   1   6   49.71   17.32
  -7   1   6   60.69   16.20
   7  -1   6   60.71   11.30
   7  -1  -8    4.23   17.68
  -7   1  -8    9.75   16.87
  -7   1   8   20.03   20.58
  -7   1   8    4.41   18.34
   0   7  -1  196.19   14.71
   0   7   1  202.53   13.53
  -7   0   1  182.85   13.95
   7   0  -1  208.22   12.01
   7   0   1  183.50   15.07
  -7   0  -1  177.36   13.44
  -7   0  -1  182.84   14.05
   0   7   1  222.60   14.72
   7   0   1  183.42   13.78
   0  -7   1  163.64   11.55
   0  -7  -1  215.73   14.94
   7   0   1  197.41   14.46
   0  -7  -1  172.48   14.45
   0   7  -1  183.00   11.46
   0  -7   1  173.89   11.09
   0   7  -1  207.70   10.84
   0  -7   1  193.15   14.91
   0  -7   1  171.26   13.91
   7   0  -1  159.16   14.26
  -7   0   1  182.91   12.11
  -7   0   3  689.45   35.73
   0  -7   3  670.84   35.83
   0   7  -3  674.84   35.80
   7   0  -3  708.02   34.92
   0   7  -3  606.94   35.70
  -7   0   3  671.83   35.30
   0  -7  -3  635.35   35.16
   0  -7   3  652.95   36.10
   0   7   3  702.22   35.32
  -7   0  -3  633.05   36.00
   7   0  -3  666.30   35.25
   0   7   3  654.69   35.34
   7   0   3  636.57   34.62
  -7   0  -3  649.18   34.47
   0  -7  -3  664.60   35.40
   7   0   3  583.86   36.15
   0  -7  -5   90.25   15.30
  -7   0  -5   71.04   15.65
   0   7  -5  109.77   14.01
  -7   0   5  121.30   15.73
   0  -7  -5  104.21   12.86
  -7   0  -5  109.39   10.09
   0   7  -5  114.37   15.54
   0   7   5  110.49   12.44
   0   7   5   84.01   15.52
  -7   0   5  115.14   14.37
   7   0  -5  103.12   13.99
   0  -7   5  106.90   14.66
  -7   0   5  103.43   11.29
   0   7  -7   21.22   18.68
   0  -7   7    1.64   17.66
   0   7  -7    1.06   13.97
   7   0  -7   27.97   16.40
  -7   0   7   -2.94   10.65
   0   7   7    0.93   19.14
   0   7   7   -6.74   17.44
  -7   0  -7    9.65   18.69
   7   0   7  -16.84   11.95
   0   7   7    8.00   13.26
  -7   0  -7   31.27   16.42
   0  -7  -7    4.19   17.91
   0  -7  -7    3.29   12.60
  -7   0   7  -14.58   17.90
  -7   0   7  -10.54   16.73
   1  -7   0   27.92    9.75
  -7  -1   0    0.19    9.61
   1  -7   0   37.62    8.53
  -1   7   0   36.39    9.57
  -1   7   0   44.66    8.57
   7   1   0   24.48    7.11
   7   1   0   18.12    9.79
   1  -7   2   23.29    7.21
  -7  -1  -2   14.42    9.18
   7   1  -2    9.29    7.85
  -7  -1  -2   13.63   11.13
   1  -7  -2   27.21   10.90
   1  -7   2   25.56   10.52
  -7  -1   2   14.29    8.14
   7   1   2    3.91    9.81
  -1   7   2   19.62   10.60
  -1   7   2   13.98    9.56
  -1   7  -2   17.86   10.88
   1  -7   2   18.50   12.76
   7   1   2    9.46   10.57
  -1   7   2    5.72   10.71
   7   1  -2   28.61    8.98
  -1   7  -2   14.26   11.24
   1  -7  -2    8.04    9.88
  -7  -1   2   14.25    9.77
  -7  -1   4  -10.23   10.71
   1  -7  -4   -7.21   12.52
  -7  -1   4  -16.20   12.05
  -7  -1  -4    4.19    8.06
   7   1   4   -2.70    9.59
  -1   7   4  -12.78   10.83
   7   1   4  -21.66   12.98
  -1   7  -4   15.53   13.00
  -1   7  -4    1.44   12.59
   7   1  -4  -20.16   10.71
  -7  -1  -4   -2.05   12.96
   1  -7   4   -0.47   12.44
   1  -7  -4  -21.48   10.17
   1  -7   4   -3.31   12.90
  -7  -1   6   61.58   15.93
  -1   7   6   81.38   16.20
   7   1   6   49.53   11.62
  -1   7   6   83.80   18.27
   1  -7  -6   82.07   12.69
  -1   7  -6   64.45   16.58
   7   1  -6   37.94    4.65
   7   1  -6   42.89   14.72
  -7  -1  -6   33.55   16.61
  -7  -1   6   46.21   11.09
   7   1  -6   34.05    5.13
   1  -7  -6   55.66   17.13
  -1   7  -6   41.99   14.51
  -7  -1  -6   41.29   11.14
  -1   7   6   48.69   13.08
   1  -7   6   59.81   16.63
  -7  -1   6   58.16   16.81
  -7  -1   8    7.65   18.26
  -1   7   8    5.64   14.49
  -7  -1  -8  -14.26   18.49
   7   1  -8    2.47   17.59
  -7  -1   8    0.93   20.16
  -2   7   1  241.85   18.13
   7   2   1  279.11   18.51
   7   2   1  287.81   18.28
   2  -7   1  270.01   16.73
   2  -7  -1  300.52   18.60
  -7  -2   1  294.03   15.85
   2  -7   1  280.07   18.60
  -7  -2   1  285.39   18.42
  -2   7  -1  289.15   19.45
  -7  -2  -1  335.68   18.14
   7   2   1  290.74   17.29
   2  -7  -1  309.41   18.14
   2  -7   1  236.14   19.69
  -7  -2  -1  331.18   18.05
  -2   7  -1  283.36   16.41
  -7  -2  -1  280.75   17.61
  -2   7  -1  322.76   16.49
  -7  -2   1  301.98   17.38
  -2   7   1  285.72   18.35
   7   2  -1  298.77   17.55
  -2   7   1  336.98   18.25
   7   2  -3   81.76   10.89
   7   2   3  109.67   11.44
   2  -7  -3   96.60   14.20
   2  -7   3   95.40   13.37
  -7  -2   3  101.36   11.50
  -2   7   3   75.02   11.28
   2  -7   3  104.31   10.76
  -7  -2  -3  109.57   11.37
  -2   7  -3  110.99   15.47
  -2   7   3  110.83   12.70
  -7  -2   3   68.33   12.19
   2  -7  -3   96.94   10.97
   7   2   3   98.91   13.33
  -2   7   3   87.41   13.44
   2  -7   3   91.21   14.47
  -2   7  -3  102.95   14.43
  -7  -2  -3   88.26   13.93
  -2   7   5   50.69   12.04
  -2   7  -5   48.53   14.43
  -7  -2   5   39.12   13.50
  -7  -2  -5   23.35    9.68
  -2   7  -5   50.26   14.41
   7   2  -5   49.03   12.78
  -2   7   5   63.47   15.99
   2  -7  -5   47.37   14.68
  -7  -2  -5   56.16   14.88
   7   2   5   30.46   10.57
   2  -7   5   30.51   14.49
  -7  -2   5   40.46    9.23
   2  -7  -5   57.15   11.31
  -7  -2   5   47.35   13.46
   7   2   5   46.92   15.07
  -2   7   7   19.47   17.10
  -2   7  -7    2.54   18.25
  -7  -2  -7   -3.50   11.88
  -2   7  -7  -15.69   14.87
  -7  -2  -7   17.45   17.53
  -7  -2   7  -12.25   16.08
   2  -7  -7    7.48   17.67
   2  -7  -7    0.50   11.94
  -7  -2   7   15.02   10.03
   7   2  -7   23.80   15.66
  -7  -2   7   15.79   18.05
   2  -7   7   19.47   18.60
   7   2   7   -1.49   12.02
  -2   7   7   23.34   13.06
  -2   7   7    7.35   20.40
  -7  -3   0   -5.84    8.04
   3  -7   0  -33.35   12.80
  -7  -3   0   -2.78    5.12
   7   3   0   -9.31    8.34
   3  -7   0   -7.32   10.28
   7   3   0   -1.82   10.41
  -3   7   0  -12.57    9.89
   7   3   2   28.51   10.55
  -3   7   2   41.49   11.99
   3  -7   2   41.83   11.20
  -7  -3   2   32.38    9.07
  -7  -3   2   26.59    4.12
   7   3  -2   41.64    8.91
   3  -7  -2   13.56    9.44
   7   3  -2   34.10    7.06
  -7  -3   2   37.01    7.62
   3  -7  -2   53.35   10.98
  -3   7   2   43.59   10.91
   7   3   2   37.94   10.86
  -7  -3  -2   42.63   10.95
  -3   7  -2   47.04   12.71
   3  -7   2   34.03   13.61
  -7  -3   2   36.48    8.16
   3  -7   2   39.19    8.97
   3  -7  -2   28.21   12.01
  -3   7   2   32.71   10.22
  -3   7  -2   35.04   13.25
  -7  -3  -2   40.19    9.68
   3  -7   4   -5.34   13.81
   3  -7  -4    4.68   12.52
  -7  -3   4   15.37   11.17
   7   3  -4   31.60   10.59
   7   3   4    8.58   13.10
   3  -7  -4    7.26    9.13
   3  -7   4   18.71   12.54
  -7  -3   4   21.46   11.30
  -3   7   4   35.44   11.49
  -3   7  -4    2.05   13.02
  -7  -3  -4    2.38    8.88
  -3   7  -4   10.17   13.00
  -3   7   4   14.70   13.27
   7   3   4   13.80   10.35
   3  -7   4   24.03   10.18
  -7  -3  -4    5.68   12.80
   7   3  -6  -10.51   14.20
  -7  -3   6  -19.43   16.43
   7   3   6   16.84   17.93
  -3   7  -6   39.13   17.68
   3  -7  -6   -3.81   11.37
  -3   7   6  -12.55   18.47
  -7  -3  -6   17.27   10.79
   7   3  -6   10.06    4.12
  -7  -3   6    8.83    9.16
   3  -7   6   24.80   16.34
   7   3  -6   10.41    4.43
  -3   7   6   -6.60   15.97
   7   3   6   25.99   12.46
   3  -7  -6   27.37   16.24
  -3   7  -6   13.93   15.21
  -3   7   6   13.17   12.22
  -7  -3   6   -7.16   14.80
  -7  -3   8   42.75   19.89
   7   3  -8    3.21   17.93
  -7  -3  -8   -4.40   18.78
  -7  -3   8   21.23   17.94
  -7  -3  -8    8.66   16.22
   4  -7   1 1440.83   71.12
  -4   7   1 1397.73   71.68
  -7  -4   1 1457.34   71.47
  -4   7   1 1417.43   71.61
   7   4   1 1455.20   71.23
  -7  -4   1 1475.34   70.69
   4  -7  -1 1448.46   71.62
  -4   7  -1 1454.66   71.17
  -7  -4  -1 1292.89   71.54
  -7  -4   1 1469.87   70.67
   7   4  -1 1405.07   70.82
   4  -7  -1 1381.97   71.71
   7   4  -1 1393.62   71.61
  -7  -4  -1 1446.00   71.08
   7   4   1 1447.88   71.04
   4  -7   3  237.33   19.50
   7   4   3  258.77   18.46
   4  -7  -3  245.30   18.43
   4  -7   3  287.52   18.37
  -7  -4  -3  273.51   16.26
   7   4   3  223.61   16.53
  -4   7  -3  237.68   19.53
  -4   7   3  259.44   19.06
  -4   7   3  262.95   17.49
  -4   7  -3  254.83   18.30
  -7  -4   3  213.49   15.65
  -7  -4   3  272.45   15.57
   4  -7  -3  250.70   15.76
   4  -7   3  250.82   16.21
  -7  -4  -3  254.25   17.85
   7   4  -3  261.10   15.46
  -7  -4   3  197.45   12.29
  -4   7  -3  205.64   12.27
  -4   7   3  257.15   16.09
  -7  -4   3  242.60   16.16
   4  -7   5   50.13   11.97
  -4   7   5   37.38   12.29
  -4   7   5   52.58   14.30
  -7  -4   5   50.08   13.11
   7   4  -5   23.22    4.32
   7   4   5   42.27   12.29
  -7  -4  -5   42.65   10.72
   4  -7   5   69.31   15.48
  -4   7  -5   77.51   15.87
   4  -7  -5   37.65    9.94
  -4   7  -5   37.49   15.42
  -4   7   5   35.05   15.69
   7   4  -5   28.68   12.71
  -7  -4   5   78.66   12.84
   7   4   5   36.27   15.70
  -7  -4  -5   23.54   14.67
   4  -7  -5   64.95   14.65
  -7  -4  -7   19.44   16.00
  -4   7   7  -19.23   19.65
   7   4   7  -24.02   13.94
   7   4  -7   -5.52   15.56
  -4   7   7   -0.85   17.52
  -4   7  -7  -18.79   16.11
  -7  -4  -7   24.85   12.26
  -7  -4   7    2.30   17.21
  -4   7   7   33.13   13.32
  -7  -4   7    2.75   16.11
   4  -7   7  -13.10   19.11
   4  -7  -7   39.81   17.92
  -4   7  -7  -14.90   19.37
   5  -7   0   -8.01   11.44
  -5   7   0    9.74    9.44
   7   5   0   -3.65   10.64
   5  -7   0   -7.51   10.20
  -7  -5   0   -7.76   10.01
   7   5   0    2.32    7.78
  -7  -5   0   -4.91    4.78
  -7  -5   0   -9.40    6.89
  -7  -5   0   -5.13    9.64
  -5   7   0    0.30   11.47
  -5   7   2   50.21   12.28
   7   5  -2   32.55    6.61
  -7  -5   2   22.30    6.23
  -7  -5  -2   32.37   10.73
   7   5  -2   19.67    7.47
  -7  -5   2   17.62    7.58
   7   5   2   42.25   11.14
  -5   7  -2   41.69   14.40
   7   5   2   29.89   11.02
   5  -7  -2   34.91    9.66
   5  -7   2   37.82   14.12
  -7  -5   2   34.52    7.13
  -5   7  -2   37.79    9.52
  -7  -5  -2   14.51    9.83
  -5   7   2   19.44    9.51
   5  -7  -2   47.99   11.16
   7   5  -2   38.86    6.65
   5  -7   2   40.73    9.89
  -5   7  -2   21.16   12.59
  -7  -5   2   22.45    6.33
  -7  -5   4   17.36   10.90
  -5   7   4    8.63   11.71
  -7  -5  -4   14.93    9.62
   7   5   4   17.86   10.67
   7   5   4   25.01   12.84
  -5   7   4   11.32    9.06
   5  -7  -4    7.67    8.72
   5  -7   4   25.08   10.72
   7   5  -4   13.02    4.32
  -5   7  -4   14.89    3.51
   5  -7   4   30.80   13.83
  -5   7   4  -29.57   14.19
  -5   7  -4   16.43   13.87
  -5   7  -4   -6.80   13.91
   5  -7  -4   19.48   12.90
   7   5  -4   15.88   10.24
  -7  -5   4   30.79   10.33
  -7  -5  -4    5.26   12.90
  -7  -5   4    8.48    8.25
   7   5  -6    6.22    5.52
   5  -7   6   28.93   17.04
  -5   7   6   19.61   18.22
  -7  -5  -6    8.07   12.09
  -7  -5   6    1.89   15.24
  -5   7  -6   -6.89   17.15
  -5   7  -6   -5.35   16.03
   5  -7  -6   23.18   16.19
   5  -7   6   14.08   13.54
  -5   7   6   11.87   15.97
  -7  -5  -6    2.62   14.64
  -7  -5   6   -8.78    8.42
  -7  -5   6    3.94   13.99
  -5   7   6    6.61   12.56
  -7  -5  -6   -2.28   16.66
   5  -7  -6   10.24   10.39
   7   5  -6   17.34   14.06
   7   5   6   17.04   12.71
   7   5   6  -13.09   17.84
   7   5  -8    5.58   17.48
  -7  -5   8   -6.24   17.50
  -7  -5   8    0.88   19.15
   5  -7   8    4.78   16.96
  -7  -5  -8    7.18   16.59
   7   6  -1    1.03    6.44
   7   6   1   -2.90    8.47
   7   6  -1    4.59    8.66
  -6   7   1    9.32   11.28
  -7  -6   1    2.77    8.01
   7   6   1   -7.95    8.50
  -7  -6   1   -4.50    5.07
  -7  -6  -1    7.53   11.10
   6  -7   1   -5.02    9.62
   6  -7  -1    8.40   11.38
  -6   7  -1    1.57    9.24
  -7  -6  -1   -1.23    8.65
   7   6  -1   -0.54    9.43
  -7  -6   1    3.45    8.62
   6  -7  -1   13.22   10.17
  -6   7   1    3.25   10.16
  -7  -6   3  244.61   15.02
   7   6  -3  218.43   14.88
  -7  -6  -3  235.03   16.16
   7   6   3  234.82   16.90
  -6   7   3  199.27   16.97
   6  -7   3  229.07   19.75
  -7  -6   3  218.73   14.53
   7   6   3  206.02   17.68
  -6   7  -3  251.31   18.94
  -7  -6   3  228.08   14.16
  -7  -6   3  238.60   13.74
   7   6  -3  210.48   13.08
   6  -7  -3  237.22   15.25
  -6   7  -3  228.15   13.57
   6  -7  -3  245.15   18.08
  -7  -6  -3  251.56   17.81
   6  -7   3  240.17   16.19
  -6   7   3  231.22   18.57
  -6   7   3  189.47   14.78
  -7  -6  -3  225.42   17.91
  -6   7  -3  190.20   19.89
  -6   7  -5   11.22    4.24
  -6   7  -5   29.52   15.90
  -6   7  -5   22.04   14.98
   6  -7   5   24.52   12.28
   7   6  -5   20.48   12.47
  -7  -6   5   18.13   11.89
   7   6   5   33.41   12.23
  -7  -6   5   23.12    8.38
  -6   7   5   31.83   15.14
   6  -7  -5   13.79   14.43
  -7  -6  -5   11.57   11.01
   6  -7   5   13.27   14.81
  -6   7   5   41.47   12.33
  -7  -6  -5   26.29   13.83
  -7  -6  -5   23.99   14.38
   6  -7  -5   11.70    9.30
  -7  -6   5   22.26   13.01
   7   6  -5   15.02    5.67
   7   6   5    4.85   14.90
  -6   7   5   -1.29   14.02
  -6   7   7   32.91   20.46
  -7  -6  -7   13.29   19.13
  -6   7  -7   35.37   17.90
  -7  -6   7   23.46   15.69
  -7  -6  -7   10.26   13.17
   7   6  -7   21.35   16.06
   7   6   7   31.97   14.41
   6  -7   7   26.13   15.86
  -6   7   7   39.48   13.96
   6  -7   7   15.39   19.51
  -6   7   7   17.33   18.36
  -6   7  -7   36.16   19.72
   6  -7  -7   -8.35   18.13
  -7  -6   7  -16.47   17.37
   7   6   7   25.16   19.72
  -7  -6  -7   19.87   15.85
  -7  -7   0   -7.70    9.88
   7   7   0   -0.94    7.06
   7   7   0    6.56   10.60
   7  -7   0    4.19   11.10
  -7   7   0   -5.10   12.28
  -7   7   0   -5.37   10.78
  -7  -7   0   -0.57    9.93
   7  -7   0    5.87   13.06
  -7  -7   0    3.90    6.34
   7   7   0  -10.20   10.01
  -7  -7   2  196.52   12.14
   7   7  -2  199.79   12.24
  -7   7  -2  199.38   14.92
   7   7   2  218.81   15.55
  -7  -7   2  210.27   13.22
   7   7  -2  198.45   13.17
   7   7   2  198.64   15.85
   7  -7   2  212.48   15.18
  -7  -7   2  179.44   12.69
   7   7  -2  217.37   11.96
  -7  -7  -2  216.64   15.68
  -7  -7  -2  191.02   15.86
  -7  -7   2  195.42   11.67
  -7   7  -2  161.19   18.32
   7  -7  -2  214.95   16.90
   7  -7  -2  173.45   14.34
   7   7  -2  163.78   13.61
  -7   7   2  180.62   13.93
   7   7   4   14.92   11.40
   7   7  -4    3.86   10.06
  -7   7  -4   22.58   15.82
  -7  -7  -4  -15.19   13.66
  -7  -7  -4   15.79   12.40
  -7  -7   4   -2.15    8.10
  -7  -7   4   18.05    7.51
  -7   7   4    8.49   13.30
   7   7   4   36.40   14.26
   7   7  -4   13.31    6.56
  -7   7   4   -5.01   13.61
   7  -7  -4   11.56    8.56
  -7   7   4   17.53    8.68
  -7   7  -4   -0.36    6.06
  -7   7  -4   14.58   14.01
  -7  -7   4    1.62    8.47
   7  -7  -4   -6.98   13.13
   7  -7   4    0.45   11.46
  -7  -7  -4    6.89   10.43
  -7   7   4    7.70   11.80
  -7  -7   4    0.74   10.22
  -7   7   6   97.80   15.03
   7   7   6   81.28   14.63
   7  -7   6   74.66   18.44
  -7   7  -6  109.15   19.37
  -7  -7   6   70.81    7.98
  -7  -7   6  107.00   14.45
  -7   7   6  101.31   19.81
  -7  -7  -6   74.81   13.88
  -7   7  -6   84.76    6.81
  -7  -7  -6   60.24   16.07
   7   7   6   64.31   18.38
  -7  -7  -6   95.99   19.05
   7  -7  -6   82.53   17.51
   7  -7   6   75.54   15.19
  -7   7  -6   93.28   17.88
   7   7  -6   63.36    8.35
  -7  -7   6  129.94   16.90
  -7   7   6   98.24   18.23
  -7  -7   6   68.49    8.79
   7   7  -6   93.81   15.50
   7  -7  -6  111.32   10.73
  -7   7  -8    1.61   18.21
  -7  -7   8  -16.41   19.84
  -7  -7  -8    0.82   16.36
   7   7  -8    7.95   17.59
  -7  -7   8   -7.40   17.02
   7   8  -1   10.64   10.08
  -7  -8   1   -3.93    3.77
  -7  -8   1   -3.02    9.48
   7   8   1    3.77    9.28
   8  -7   1   10.07   11.32
  -8   7  -1   -1.60   10.49
   8  -7   1    4.67   14.13
  -7  -8   1   -1.98    4.02
   8  -7  -1   -0.72   12.10
   7   8  -1    4.43    5.03
   8  -7  -1   -6.00   11.48
  -7  -8   1   10.40    8.69
   7   8  -1   -5.52    8.94
   7   8   1   15.50   10.08
  -8   7   1   11.91   11.99
  -8   7   1    1.52   10.54
  -7  -8  -1   29.21   12.41
   7   8   1   -2.28   11.92
  -7  -8  -1    1.19    9.21
   8  -7   1   12.86   12.14
  -7  -8  -3  818.71   41.85
  -8   7  -3  703.15   39.00
   8  -7  -3  798.17   39.59
  -7  -8   3  773.66   39.33
   7   8  -3  774.12   39.17
   7   8   3  739.52   41.27
  -7  -8  -3  769.70   41.16
  -7  -8   3  733.47   38.86
   7   8   3  749.35   40.65
   8  -7   3  801.40   40.85
   7   8  -3  754.27   38.86
  -7  -8   3  771.64   38.68
  -8   7   3  763.17   39.28
   8  -7   3  765.79   42.59
  -7  -8  -3  778.09   40.48
  -7  -8   3  741.13   39.27
   8  -7  -3  814.76   41.48
   8  -7  -3  732.80   41.06
  -8   7  -3  762.10   42.92
   7   8   5   62.23   16.38
  -7  -8  -5   35.57   14.12
   8  -7   5   81.62   13.87
  -8   7  -5   63.54    7.36
  -7  -8   5   53.72   13.66
  -7  -8  -5   29.93   16.07
  -7  -8   5   75.94   11.69
  -8   7  -5   75.41   17.90
  -7  -8   5   67.63    7.77
  -8   7  -5   89.10   17.35
   8  -7   5   71.65   16.18
   7   8  -5   66.25    8.58
   7   8  -5   62.35   12.85
  -8   7   5   69.62   16.30
  -8   7   5   63.06   13.41
   8  -7  -5   73.22   15.50
  -8   7   5   71.53   16.42
   8  -7  -5   60.65    9.80
   7   8   5   80.31   13.38
  -7  -8  -5   81.07   13.01
   8  -7   7    3.73   15.99
  -8   7   7    5.48   20.45
  -7  -8   7    6.59   16.91
  -8   7   7    8.01   18.86
  -7  -8  -7   26.98   18.65
  -8   7   7    4.45   13.87
  -7  -8  -7    9.83   13.81
   8  -7   7   12.14   19.81
   7   8  -7   13.83   16.01
  -8   7  -7    1.61   17.20
  -7  -8  -7   -8.39   16.13
  -7  -8   7   25.06   14.50
   7   8   7  -13.81   21.11
   8  -7  -7    1.68   17.91
  -8   7  -7   -0.93   21.02
   7   8   7    0.67   15.08
   6   8   0  514.49   24.79
  -6  -8   0  501.51   26.96
  -8   6   0  479.37   27.87
   8  -6   0  452.29   27.22
  -8   6   0  498.74   27.12
  -6  -8   0  461.83   25.13
  -6  -8   0  492.79   26.41
   8  -6   0  476.69   28.04
   6   8   0  459.07   27.07
   6   8   0  431.93   26.49
   8  -6   2  222.01   18.19
  -6  -8   2  249.70   13.71
   6   8  -2  220.94   14.77
  -8   6  -2  210.31   15.18
  -8   6   2  223.58   14.69
   8  -6  -2  235.20   17.20
   8  -6  -2  214.33   15.70
   6   8  -2  224.68   14.79
  -6  -8   2  223.48   13.59
  -6  -8  -2  258.67   16.01
   6   8   2  232.90   17.20
   8  -6   2  238.61   16.62
  -6  -8   2  212.45   12.30
  -6  -8  -2  233.96   16.92
   6   8   2  222.96   16.89
  -8   6  -2  186.36   18.97
  -8   6  -2  235.63   16.55
  -6  -8  -2  239.59   17.43
  -8   6  -2  179.28   17.47
  -6  -8   2  210.74   15.00
  -6  -8   4    6.72    9.72
  -8   6  -4    1.29   15.23
   6   8  -4   10.03    8.11
  -8   6   4  -11.83   10.95
  -8   6  -4  -18.12    7.37
  -8   6   4    2.83   12.28
  -6  -8  -4   11.74   12.84
   6   8  -4    7.02   10.25
  -8   6   4   -9.94    7.66
   6   8   4    7.04   13.50
  -6  -8   4   -1.13   10.67
  -6  -8   4   -7.74    7.52
  -8   6   4   -3.22   13.85
  -6  -8  -4    6.03   13.05
  -6  -8  -4   -0.45   10.33
   8  -6   4   19.04   12.14
   8  -6  -4    6.78   13.03
   6   8   4    5.14   11.15
   8  -6  -4   -1.66    7.86
  -8   6   6  174.83   16.07
   6   8   6  144.98   16.04
   6   8   6  137.00   20.28
   8  -6   6  161.64   17.63
  -6  -8   6  170.86   17.57
  -8   6   6  127.11   19.99
   6   8  -6  109.39   16.59
  -8   6  -6   96.18   18.93
  -8   6  -6  120.36    9.86
  -8   6  -6  130.33   20.32
   8  -6   6  169.36   20.89
  -6  -8  -6   97.05   16.27
  -6  -8   6  134.07   15.37
  -8   6   6  110.35   18.97
  -6  -8  -6  137.45   15.59
   8  -6  -6  137.21   10.94
  -6  -8  -6  163.64   20.32
   6   8  -6  137.61   11.55
   8  -6  -6  149.03   18.42
  -6  -8  -8    3.18   15.58
  -6  -8   8    7.83   19.86
   6   8  -8  -24.58   18.38
  -8   6  -8   -0.83   18.58
  -8   5  -1    6.41   13.52
  -8   5  -1   10.20   10.70
   5   8   1   10.00   11.56
   8  -5   1   14.01   11.68
   5   8   1    4.80   10.03
  -8   5   1   -2.27   10.50
   5   8  -1   11.14    8.29
   5   8  -1    4.41    9.45
   8  -5   1   34.20   11.05
  -5  -8   1   12.47    7.89
   8  -5  -1   33.18   10.93
  -5  -8   1    8.59    6.72
   8  -5   1   21.45   13.51
   5   8   1   30.84    9.37
  -5  -8   1   33.44    9.67
  -5  -8  -1   27.57    9.63
   8  -5   3  227.15   17.76
  -5  -8   3  245.67   14.11
  -5  -8   3  243.42   16.19
   8  -5  -3  260.50   18.13
   5   8   3  238.42   17.74
  -5  -8  -3  230.82   17.66
   8  -5  -3  245.50   18.24
  -5  -8  -3  283.66   17.13
   8  -5   3  237.07   18.80
  -8   5   3  231.98   14.32
   5   8  -3  255.38   16.16
  -5  -8   3  218.82   16.20
  -8   5  -3  213.88   19.98
  -5  -8   3  245.76   13.84
   5   8   3  243.11   19.03
   5   8  -3  237.46   15.49
  -8   5   3  269.07   19.39
  -8   5   3  237.39   18.14
   8  -5  -3  227.38   14.89
  -5  -8  -3  251.38   18.95
  -5  -8   5  112.38   12.26
  -5  -8  -5  117.56   16.33
   8  -5  -5  113.11    8.56
  -8   5   5  119.09   16.20
  -8   5   5  120.18   13.62
   5   8   5  135.66   14.14
  -8   5   5  117.46   16.36
   5   8  -5  118.25   14.74
  -5  -8  -5  114.84   13.44
  -5  -8  -5  101.45   14.76
  -5  -8   5  101.40   14.72
  -8   5  -5   91.78    8.82
  -8   5  -5   98.50   17.36
   5   8   5   78.17   16.51
   5   8  -5   93.93   10.41
   8  -5  -5   86.30   15.23
   8  -5   5  136.11   14.67
   5   8  -7   24.11   16.70
  -5  -8  -7   22.84   13.81
  -8   5  -7  -15.85   17.36
   5   8   7   26.88   14.50
  -5  -8   7  -15.20   14.47
  -5  -8  -7   -9.79   15.48
  -8   5   7   12.79   18.31
  -8   5  -7    9.23   19.41
  -8   5   7   22.77   19.54
   8  -5  -7    7.15   17.33
   8  -5   7   37.42   20.06
   5   8   7   -6.79   20.64
   8  -5   7    6.86   16.85
  -5  -8   7   12.83   16.74
  -8   5   7  -25.57   13.78
   8  -4   0  101.48   13.95
  -4  -8   0  115.30   12.12
  -4  -8   0  102.07   10.07
  -8   4   0  119.33   13.25
  -4  -8   0  104.44   10.49
   4   8   0  108.39   12.12
   4   8   0   95.85   10.92
  -4  -8   2  200.56   11.04
   4   8   2  175.99   15.36
   4   8  -2  183.47   12.82
  -4  -8  -2  160.50   14.13
   8  -4   2  181.00   15.09
  -8   4  -2  180.34   15.77
  -8   4  -2  142.07   12.91
  -4  -8  -2  183.12   15.04
   8  -4   2  153.30   15.62
  -4  -8  -2  161.16   15.11
   8  -4  -2  188.55   14.53
  -8   4   2  201.42   16.34
  -8   4  -2  178.68   14.82
   4   8  -2  149.52   11.38
  -8   4   2  175.28   11.60
  -4  -8   2  186.38   12.61
   4   8  -2  195.05   13.06
  -4  -8   2  176.27   13.98
   8  -4  -2  185.31   12.38
   4   8   2  182.21   15.58
  -4  -8   2  139.60    9.44
   8  -4  -2  172.02   14.87
  -4  -8  -4  122.58   15.71
   4   8  -4  111.36   13.25
  -4  -8   4   94.91    6.53
  -4  -8   4  134.09   12.94
  -8   4   4  139.27   14.81
  -8   4  -4  127.85   10.20
   4   8   4  116.42   15.89
  -4  -8  -4  118.48   12.96
  -8   4  -4  117.57   16.32
   4   8  -4  112.37   10.78
   4   8   4  106.40   13.20
  -4  -8  -4  130.91   13.69
   8  -4   4  127.10   13.94
  -8   4   4  125.89   14.56
   8  -4   4  136.04   11.07
   8  -4  -4  112.61    8.43
  -4  -8   4  129.15   10.47
   8  -4  -4  131.46   14.17
  -4  -8   4  108.21   13.14
   4   8   6   71.93   18.81
  -8   4  -6   69.42   17.81
  -4  -8   6   43.48   15.64
   8  -4   6   61.85   15.75
  -8   4  -6   32.22    9.27
   4   8   6   67.01   13.86
  -8   4   6   51.29   13.62
  -4  -8  -6   61.18   14.09
   4   8  -6   29.10   16.22
  -4  -8  -6   54.05   14.16
   8  -4   6   33.58   10.21
  -4  -8   6   44.82   13.43
   8  -4  -6   63.52   16.35
   4   8  -6   63.49   11.49
  -8   4   6   68.26   17.59
  -8   4   6   58.30   18.33
   8  -4  -6   52.14    6.78
  -8   4  -6   44.35   17.87
  -8   4  -8   -9.20   18.51
   4   8  -8  -28.47   18.74
  -4  -8   8   -8.71   16.70
   4   8   8   13.82   15.88
  -4  -8   8  -17.98   19.77
  -4  -8  -8    2.93   14.90
   3   8   1   -0.50    9.94
   3   8  -1    4.74    7.47
  -8   3   1    9.53    9.11
  -8   3  -1   25.00   13.62
  -3  -8   1    8.80    8.43
  -8   3  -1   -4.23    9.52
  -3  -8  -1    6.42   10.27
  -3  -8   1    3.68    8.99
   8  -3  -1   12.53    9.75
   8  -3   1   -5.22   10.00
  -8   3  -1   10.02   10.06
   3   8  -1    8.32    9.75
   8  -3  -1   -0.59   11.09
  -3  -8   1    8.81    6.50
  -8   3  -1  -13.50   10.64
   3   8   1    6.67    9.66
   3   8  -3  458.55   23.12
   3   8   3  441.04   24.78
   8  -3   3  338.38   21.75
   8  -3  -3  423.62   23.99
  -3  -8  -3  408.43   24.45
  -8   3   3  352.39   19.55
   3   8  -3  385.41   22.08
  -3  -8  -3  380.77   23.13
  -3  -8  -3  412.17   22.84
  -8   3   3  437.80   24.26
   3   8   3  426.27   22.99
  -8   3  -3  423.56   25.10
  -8   3   3  421.54   23.54
   8  -3  -3  364.56   19.74
   8  -3   3  423.47   23.49
   8  -3  -3  420.41   23.34
  -3  -8   3  455.14   22.73
  -3  -8   3  332.18   19.13
   8  -3   3  414.56   24.31
  -8   3  -3  394.48   21.55
  -3  -8   3  400.66   23.18
  -8   3  -3  386.57   25.94
   8  -3  -5   65.27    6.36
  -8   3   5   94.87   12.34
  -3  -8   5  112.52   14.59
  -8   3   5   75.83   14.83
   8  -3   5   90.84   14.36
   8  -3  -5   81.52   14.77
  -8   3  -5   92.42    9.36
   3   8  -5   72.88   14.90
   3   8   5   89.47   13.15
  -8   3  -5   85.89   16.95
  -3  -8  -5   97.06   13.27
   8  -3   5   80.94   10.88
   3   8   5   76.29   16.77
  -8   3   5   80.66   15.20
  -3  -8  -5   71.02   13.59
   3   8  -5   85.37   11.75
  -8   3   7   35.37   19.19
  -3  -8   7   -8.56   17.49
   8  -3  -7   11.33   16.85
  -8   3  -7   -4.54   19.24
  -8   3   7   31.04   12.62
   3   8   7   25.95   14.07
   8  -3   7   24.91   16.83
  -8   3  -7   55.04   17.59
   8  -3   7    9.39   19.67
  -3  -8  -7   18.11   13.89
  -8   3   7   49.92   18.89
   3   8  -7   67.57   17.67
  -3  -8   7   34.25   14.85
   8  -2   0 1120.16   56.73
   8  -2   0 1097.10   57.43
  -8   2   0 1169.96   57.50
   2   8   0 1062.11   57.38
  -2  -8   0 1140.69   56.70
   2   8   0 1182.47   55.89
  -2  -8   0 1024.17   57.28
   2   8   0 1165.41   56.75
  -2  -8   2   89.15   11.60
  -2  -8  -2   82.61   12.36
  -2  -8  -2   71.44   10.81
   2   8  -2   79.44   11.00
   8  -2   2   67.40   12.28
  -2  -8  -2   85.74   12.26
  -8   2   2   66.84    6.81
   2   8   2   82.83   12.47
   8  -2   2   64.67   10.90
   8  -2  -2   69.17   12.18
  -2  -8   2   90.53   11.81
  -2  -8   2   82.81    5.92
   8  -2  -2   79.53    7.60
  -8   2  -2   89.98   10.73
   2   8  -2   83.02   10.79
   8  -2  -2   88.35   10.92
  -8   2   2   68.62   12.25
  -8   2  -2   80.22   12.93
  -2  -8   2  100.53    6.61
   2   8   2   65.22   12.79
  -8   2  -4   19.67   12.86
  -8   2  -4   -1.21   14.73
  -2  -8  -4   13.16   10.43
   2   8   4   21.58   13.16
   8  -2   4   17.62   13.26
   8  -2  -4    7.29   11.04
  -8   2   4   16.90   12.65
   8  -2   4   15.78    8.82
   2   8  -4    8.78   10.51
  -8   2   4   19.00   12.54
  -2  -8   4    7.38   11.99
   2   8   4   31.25   11.02
  -8   2  -4    8.82    8.20
   8  -2   4   15.41   12.02
   2   8  -4   14.00   11.60
  -2  -8   4   24.81   11.87
  -2  -8  -4   30.44   11.18
  -2  -8  -6   92.36   14.52
  -2  -8  -6   74.72   14.14
   2   8  -6   80.91   12.97
  -8   2   6   82.53   13.05
  -2  -8   6   38.43   15.97
  -8   2  -6   79.57   17.32
  -8   2   6   85.92   16.78
   8  -2  -6  103.54   16.47
  -8   2  -6   80.79   10.72
   2   8   6   96.25   14.06
  -8   2   6  103.01   17.39
   8  -2   6   59.47   11.23
   2   8  -6   57.92   17.40
  -8   2   8   23.99   21.14
  -2  -8   8   -2.94   16.77
   8  -2  -8   14.46   18.15
   2   8  -8   64.19   20.30
  -2  -8   8    7.38   19.24
   2   8   8  -12.10   15.00
  -8   2  -8   17.72   18.02
  -8   1  -1  234.26   15.32
  -1  -8  -1  181.91   16.06
  -8   1   1  189.75   15.20
   1   8  -1  206.54   12.81
   8  -1  -1  206.69   15.81
  -1  -8   1  213.05   11.33
   1   8  -1  238.34   15.75
  -1  -8   1  210.69   12.82
  -8   1  -1  171.83   17.81
  -1  -8   1  215.14   15.60
   8  -1   1  200.72   14.82
  -8   1   1  196.27   14.37
  -1  -8  -1  224.62   15.54
  -8   1  -1  209.77   15.23
   1   8   1  244.70   14.41
  -1  -8   1  211.72   14.18
   1   8   1  241.06   15.10
  -8   1  -3  274.06   21.86
   8  -1   3  270.85   17.91
  -8   1  -3  319.16   20.31
   1   8   3  285.93   20.55
   8  -1  -3  295.00   19.37
   1   8   3  263.58   19.13
  -1  -8   3  263.33   19.07
   8  -1  -3  281.72   18.34
   1   8  -3  290.58   19.53
   8  -1   3  297.60   20.80
   1   8   3  288.66   19.11
  -8   1  -3  272.45   17.30
  -1  -8  -3  291.01   19.02
   1   8  -3  302.61   19.20
  -8   1   3  290.46   18.79
  -8   1   3  270.77   19.59
  -1  -8   3  301.82   20.08
   8  -1   3  288.18   19.43
  -1  -8  -3  272.54   18.71
  -1  -8  -5   -0.96   11.05
  -8   1  -5   14.03    8.28
  -8   1  -5   -3.38   14.72
  -8   1   5   25.55   13.38
   8  -1  -5   -0.51   12.97
   8  -1   5   -3.70    9.55
  -1  -8   5   -5.57   12.84
  -8   1   5  -13.77   14.49
   1   8  -5    1.31   11.88
   8  -1   5    9.36   14.46
  -8   1   5    9.67   10.22
  -1  -8  -5   -3.57   11.59
   1   8   5   -2.90   11.27
   1   8  -5   12.42   13.57
   1   8   7    2.83   20.09
  -1  -8   7    2.41   17.54
   8  -1  -7    8.66   15.82
   1   8   7   12.11   17.81
  -1  -8  -7  -26.49   18.82
  -8   1  -7    6.39   17.96
   1   8  -7    9.01   13.81
   8  -1   7   19.62   11.82
  -1  -8  -7  -11.25   13.02
  -8   1   7   -0.94   11.44
  -8   1  -7    2.69   19.44
   1   8  -7   20.88   17.97
  -8   1   7   32.63   17.70
   1   8   7   13.29   13.78
  -8   1   7  -17.86   18.39
  -8   0   0  599.51   31.40
   0   8   0  604.99   30.30
   8   0   0  565.46   30.40
   0  -8   0  620.70   30.28
   0   8   0  591.68   31.07
   8   0   0  574.01   31.72
   0  -8   0  565.20   31.02
   8   0   2   24.48   11.19
   0  -8   2   31.28    6.82
  -8   0   2   28.72    8.98
   0   8   2   34.63   12.66
   0  -8   2   36.15   11.82
   8   0  -2   24.65   10.35
   0   8  -2   49.96   10.62
   0  -8  -2   25.22   11.04
   0   8  -2   40.53   11.61
  -8   0  -2   28.08   11.72
   8   0   2   43.22   10.21
   0   8   2   42.98   11.00
   0  -8  -2   40.18   11.57
  -8   0  -2   29.80    9.74
  -8   0   2   32.46   11.25
   0  -8  -2   28.51   10.20
   0   8   2   49.66   11.28
   0  -8   2   35.44   11.21
   8   0  -2   34.28    8.70
   0   8   4    6.02   10.56
  -8   0   4   10.91   11.44
  -8   0  -4    6.90   13.50
   0  -8  -4   12.05   10.97
   8   0   4   20.43    9.60
  -8   0   4    0.93   11.94
  -8   0  -4   16.90    8.81
   0   8  -4   16.52   12.46
   0  -8  -4   13.42   10.08
   0  -8   4   -1.40   11.50
   0  -8   4    5.66   12.88
   8   0  -4    5.07   10.89
   8   0   4   -5.94   12.68
   0   8  -4    1.26   11.53
   8   0  -6  151.33   17.07
  -8   0   6  123.79   14.02
  -8   0  -6  137.79   13.40
   8   0   6  137.63   14.52
   0   8  -6  111.53   16.25
   0  -8  -6  136.47   15.60
  -8   0   6  153.57   18.29
   0   8   6  146.80   15.88
   0  -8   6  126.39   18.87
   0  -8  -6  121.97   19.59
  -8   0  -6   93.95   18.95
  -8   0   6  132.11   18.82
   0   8   6  137.66   20.30
   0   8  -6  144.41   18.80
  -8   0   8   22.91   19.14
  -8   0   8    8.38   20.55
   0   8   8    8.61   15.33
   8   0  -8  -27.02   18.68
  -8   0  -8   -5.20   18.42
  -8  -1  -1  231.69   16.59
   1  -8   1  230.82   17.17
   1  -8   1  231.02   17.63
   8   1  -1  212.46   16.59
  -1   8  -1  254.03   14.78
   1  -8  -1  266.32   16.17
   1  -8  -1  254.75   17.20
  -1   8   1  243.10   16.71
   8   1   1  232.89   16.99
   8   1  -1  272.97   14.26
   1  -8  -1  234.09   17.59
   8   1   1  232.54   16.80
  -8  -1   1  256.28   16.40
   1  -8   1  264.44   14.46
  -1   8  -1  274.46   14.38
   8   1   1  263.95   15.94
  -1   8   1  257.52   17.18
  -1   8   1  265.60   16.15
  -1   8  -1  241.70   17.58
  -8  -1  -1  263.96   17.15
  -8  -1  -1  242.26   16.41
   1  -8   3  -15.20   13.44
   1  -8   3   11.35    8.41
   8   1   3  -15.93   12.24
  -1   8   3   -6.55   11.61
  -8  -1   3   -4.90    9.73
   8   1   3    6.52    9.88
   1  -8  -3    5.92   11.02
  -8  -1  -3   -0.61    9.03
   1  -8   3    5.44   11.49
   1  -8  -3    5.04   10.28
  -8  -1  -3   14.58   12.67
  -1   8  -3    8.31   12.57
  -1   8   3   16.73   10.26
  -1   8   3   -5.01   12.05
   8   1  -3    4.12    9.33
  -8  -1   3    8.94   10.88
  -1   8  -3   16.60   12.62
   8   1  -3   -9.27    9.88
  -1   8  -5   16.07   14.16
  -1   8  -5  -12.23   13.61
  -8  -1  -5    5.68    8.72
  -1   8   5    2.93   11.41
   1  -8  -5    3.17   14.32
   8   1  -5    3.84   12.35
  -8  -1   5    1.59   13.52
  -8  -1  -5   21.83   14.14
  -1   8   5    2.04   14.98
   8   1   5   12.04   14.54
   1  -8   5    3.52   13.89
   1  -8  -5  -12.81   11.13
  -8  -1   5   11.91   12.72
  -1   8  -7    1.74   14.68
   8   1   7   -7.15   12.66
  -8  -1  -7   26.18   11.63
  -1   8  -7  -24.18   18.52
   8   1  -7   11.14   15.41
   1  -8   7  -19.95   18.82
  -8  -1  -7  -13.95   18.21
  -8  -1   7   -2.06   10.65
  -1   8   7    3.74   19.82
  -8  -1   7   12.65   16.49
  -8  -1   7  -27.61   17.85
  -1   8   7   -5.40   13.05
   1  -8  -7  -10.16   17.70
   1  -8  -7   -3.81   12.69
  -1   8   7   -2.59   17.77
   2  -8   0 1541.92   74.33
  -8  -2   0 1423.10   73.66
   8   2   0 1078.82   74.97
   8   2   0 1586.79   73.70
  -2   8   0 1546.56   74.53
   8   2   0 1542.59   74.63
  -8  -2   0 1616.58   74.57
  -2   8   0 1560.63   74.35
   2  -8   2  100.70    9.44
   8   2   2   93.36   11.74
   8   2  -2   93.25    8.54
  -8  -2  -2   96.13   11.45
  -2   8  -2   93.36   13.67
   2  -8   2  103.58   12.99
  -8  -2   2   82.53    9.01
  -2   8   2  108.55   11.55
   8   2  -2   66.77   10.52
   2  -8  -2   92.36   11.73
   2  -8   2   75.82   14.16
  -2   8  -2   87.32    6.64
  -2   8   2   88.47   12.41
  -8  -2   2   74.44   10.95
   8   2   2   63.02   11.46
   8   2   2   91.03   12.16
  -8  -2  -2   89.49   12.20
  -2   8  -2   85.78   12.58
  -2   8  -4  -11.37   13.11
  -8  -2   4   -3.96   11.28
   2  -8  -4    6.03   10.26
  -8  -2  -4    7.19    8.96
  -8  -2   4    2.57   11.59
   2  -8   4   23.77    9.83
  -2   8  -4   10.64   12.97
  -2   8   4   -2.25   12.88
  -8  -2  -4   11.01   12.87
   2  -8   4   17.45   12.18
   8   2   4   17.60   10.38
   2  -8  -4   -1.61   13.35
   8   2   4   17.34   13.69
   2  -8   4   -6.89   13.85
  -2   8   4   15.25   11.21
   8   2  -4   -1.09   10.32
  -8  -2   6  116.18   17.25
  -8  -2  -6   98.25   13.68
  -2   8  -6  101.65   17.13
  -2   8   6  150.42   15.41
  -2   8  -6  119.20   19.17
   8   2  -6  101.66   16.05
  -8  -2   6   96.65   18.26
   2  -8   6   98.92   18.26
   8   2   6  144.09   19.45
  -8  -2  -6  109.74   18.93
  -2   8   6  155.23   17.68
   8   2   6  121.51   14.57
   2  -8  -6  123.56   14.33
  -2   8   6  132.28   20.68
   2  -8  -6  162.72   18.43
  -8  -2   6  116.78   12.64
  -8  -2  -8   -7.36   16.55
  -2   8   8   -6.56   14.92
   8   2  -8  -20.61   17.97
  -8  -2   8  -11.86   18.90
  -8  -2  -8  -10.83   19.36
  -8  -2   8   40.80   19.69
  -8  -3   1  947.48   47.11
   3  -8   1  990.37   48.64
  -3   8  -1  975.96   47.49
  -8  -3   1  909.43   48.37
   3  -8   1  964.00   47.57
  -3   8  -1  973.78   49.28
  -3   8   1  894.45   48.41
  -8  -3  -1  987.62   47.76
   3  -8  -1  889.09   48.19
   8   3   1  871.85   48.17
   3  -8  -1  931.92   48.55
  -8  -3  -1  896.85   48.35
   8   3   1  914.63   47.59
  -3   8   1  921.04   48.47
  -3   8   1  944.39   48.52
  -8  -3   1  982.10   47.58
   8   3  -1 1001.87   47.79
   8   3  -3    6.21    9.34
   8   3   3    8.46   11.51
  -8  -3   3   -5.01    9.38
  -8  -3  -3    0.83   12.27
  -3   8   3   -7.28   11.13
   3  -8   3  -10.42    9.12
  -3   8   3   -6.16    9.59
   8   3  -3   -4.19    8.83
  -3   8  -3    2.15   12.77
  -8  -3  -3  -10.73    9.74
   3  -8   3   13.19   12.61
   8   3   3   -3.26   10.31
  -8  -3   3   -3.19   10.24
  -3   8   3    3.91   12.51
  -3   8  -3  -16.44   13.54
   3  -8   3   -9.84   14.02
   3  -8  -3   -6.44    9.72
   3  -8  -3    6.68   13.33
  -8  -3  -5   -2.58   14.50
  -8  -3  -5    2.80   10.01
  -3   8   5   25.81   15.38
   8   3  -5  -21.29   11.80
  -3   8  -5   18.20   14.07
   3  -8  -5   -2.41   10.55
  -3   8  -5   -1.17   14.94
   8   3   5   24.95   14.85
   8   3   5    4.99   11.61
   3  -8   5  -10.73   11.42
  -3   8   5   19.35   12.28
   3  -8   5   -1.24   14.32
  -8  -3   5    1.02   13.16
   3  -8  -5   23.48   14.42
  -8  -3   5    1.52   13.12
  -3   8  -7   27.29   16.02
  -8  -3  -7   22.23   18.19
  -8  -3  -7    7.39   12.03
  -3   8   7   26.57   13.75
   3  -8  -7   38.03   17.90
  -8  -3   7   12.79   15.69
   3  -8  -7   46.89   12.30
   3  -8   7   -0.86   18.01
   8   3   7   58.67   20.42
  -3   8  -7   19.89   19.17
   8   3  -7    0.68   15.90
  -3   8   7   30.37   18.14
  -8  -3   7   25.33   17.79
  -3   8   7   36.35   20.30
   8   3   7   15.80   13.19
  -8  -4   0    5.38    4.57
  -4   8   0    6.04    9.67
  -8  -4   0   19.86    8.31
   8   4   0    9.96   10.09
   8   4   0   -4.02    8.38
  -8  -4   0   -6.66    9.58
  -4   8   0   -7.30   11.64
   4  -8   0  -14.91    9.95
   4  -8   0  -10.77   12.32
   4  -8   2  391.55   21.45
   4  -8   2  376.49   23.29
   8   4  -2  396.84   19.86
  -4   8  -2  413.38   23.55
  -4   8  -2  401.66   24.51
   8   4   2  390.19   22.56
   8   4   2  400.98   22.40
  -4   8   2  384.49   23.31
   4  -8  -2  408.35   22.73
   8   4  -2  371.89   21.01
  -4   8   2  356.31   22.10
  -8  -4  -2  376.30   22.55
   8   4   2  369.57   22.62
   4  -8  -2  393.44   23.11
  -8  -4   2  344.41   19.77
   4  -8  -2  350.47   22.06
  -8  -4   2  368.51   19.55
  -8  -4   2  362.64   21.04
  -8  -4  -2  392.42   22.38
  -8  -4   2  336.49   21.40
   4  -8   2  348.68   24.33
  -4   8  -2  375.59   21.48
  -4   8  -4   10.30   13.71
  -4   8   4   15.46   11.36
   4  -8   4   -1.18   14.26
  -4   8  -4   -7.25   14.56
   8   4   4   12.14   13.31
   4  -8  -4   28.77   13.65
  -8  -4   4   -4.13   10.87
   8   4   4   12.79   10.83
  -4   8   4   -8.49   13.51
   4  -8   4  -11.67   12.64
   4  -8  -4    7.87    9.66
  -8  -4   4  -10.21   11.28
   8   4  -4   -4.16    9.88
   4  -8   4    7.21   10.25
  -4   8   4   18.59    9.93
  -8  -4  -4    2.12   12.93
  -8  -4  -4   -2.28    9.52
   4  -8  -6  118.51   12.80
  -4   8   6   97.11   14.95
  -4   8  -6   75.03   18.67
  -8  -4   6   85.18   16.41
   4  -8   6  114.73   15.09
   4  -8  -6  119.20   18.06
  -4   8  -6   45.78   17.08
   8   4   6   66.53   18.88
   8   4   6   69.35   14.45
  -8  -4  -6  111.25   13.66
  -4   8   6  106.77   17.85
   4  -8   6   86.17   18.00
  -4   8   6  109.08   19.86
  -8  -4  -6   95.99   18.61
  -8  -4   6   92.90   17.49
   8   4  -6   93.07   15.26
  -8  -4   6  109.56   11.19
   8   4  -8   -2.34   17.18
  -8  -4   8   -6.48   18.70
  -4   8   8   -1.98   14.27
  -8  -4  -8   -8.26   16.33
  -8  -4   8   15.02   19.78
   4  -8   8    2.30   16.56
  -8  -4  -8   17.11   20.13
  -8  -5  -1    3.77    8.56
   8   5  -1   16.05   10.43
   8   5   1   18.36    8.91
   5  -8  -1   20.70   10.86
   8   5   1   15.44    9.31
   5  -8  -1   28.90   10.72
   5  -8   1   39.12   10.06
  -5   8   1    7.50   10.25
  -8  -5  -1    5.01   11.05
  -8  -5   1   23.87    7.93
  -8  -5   1   24.04    9.76
   8   5  -1   18.33    7.65
  -5   8   1    3.05   10.55
  -8  -5   1   30.74    6.76
  -5   8  -1   13.34    9.50
   8   5   3  -10.00   10.27
   8   5  -3    0.68    8.17
  -5   8  -3    0.99    5.25
   5  -8   3   -6.27    9.71
  -5   8   3   14.91   11.37
   5  -8  -3  -25.52   12.54
   8   5  -3   -3.43    4.00
  -8  -5  -3    6.28   10.09
  -5   8   3   -5.43    9.48
  -8  -5   3    3.20    8.66
  -8  -5  -3    2.96   11.90
   8   5   3  -24.16   12.26
  -8  -5   3   -8.36    8.75
  -5   8  -3    5.73   14.48
   5  -8   3   -7.40   12.85
   5  -8  -3    0.60    8.85
  -5   8   3    7.51   13.21
  -5   8   3   -4.18   12.32
  -8  -5   3   15.00    8.86
  -8  -5   3   -7.31    4.45
   5  -8   3   -3.30   14.58
  -5   8  -3   -0.47   13.18
  -5   8   5    1.96   14.86
  -8  -5  -5  -11.08   15.13
  -5   8  -5   14.08   15.20
   8   5   5   24.44   12.64
   5  -8   5   -0.65   14.96
   5  -8  -5   25.05   14.57
  -5   8   5   13.82   12.38
   5  -8  -5   19.71    9.69
  -5   8  -5    8.59   14.78
  -8  -5   5   -5.42   12.88
  -5   8   5   34.77   15.35
   5  -8   5   45.56   11.95
  -8  -5  -5   31.73   11.11
   8   5   5    6.23   15.07
  -8  -5   5   22.97    9.85
   8   5  -5   10.39   11.97
  -8  -5   5   22.19   12.60
  -8  -5  -7   20.61   19.35
  -8  -5   7    2.24   17.07
   5  -8   7   -2.71   15.92
  -8  -5  -7   24.30   16.00
   8   5  -7    7.37   15.22
  -5   8   7   -2.49   13.54
  -5   8  -7   -0.72   16.62
   8   5   7  -13.59   20.00
  -8  -5   7   -6.07   15.62
  -5   8   7   26.10   19.65
   5  -8   7  -11.53   18.56
  -5   8  -7  -22.39   19.53
   5  -8  -7   24.69   17.65
  -5   8   7  -11.37   17.78
  -8  -5  -7  -11.01   12.90
   8   5   7    5.43   14.07
  -8  -6   0  222.67   11.75
  -6   8   0  218.40   16.43
   6  -8   0  203.04   15.65
  -8  -6   0  195.67   15.25
   8   6   0  198.92   11.64
   6  -8   0  186.38   16.80
   8   6   0  204.69   15.65
  -8  -6   0  214.23   13.11
   8   6   0  208.57   13.63
  -8  -6   0  224.22   15.65
  -6   8   0  190.25   15.64
  -6   8  -2    3.32   13.99
  -8  -6  -2   -4.77   10.62
  -6   8   2   -2.93    9.74
  -8  -6   2    2.38    6.41
  -8  -6   2   -3.11    6.22
  -8  -6  -2    7.13   10.77
  -6   8  -2  -18.66   12.68
   8   6  -2    4.65    7.19
   6  -8  -2   -0.76   11.92
   6  -8  -2  -10.19   12.25
   8   6  -2   -8.63    7.12
  -8  -6   2   -3.68    7.42
   8   6  -2   -1.17    5.60
  -8  -6   2   -4.62    4.49
  -6   8   2   15.23   12.27
  -6   8  -2  -10.80    9.52
   6  -8   2   -3.03   14.98
   8   6   2   13.32   10.85
   6  -8  -2   -5.76   10.37
   6  -8   2   14.30    9.94
   8   6   2    4.50   11.10
   8   6   4   37.35   11.51
  -6   8  -4   57.19   14.32
  -6   8  -4   22.20   15.41
  -8  -6   4   43.17   10.71
   6  -8   4   52.83   11.51
   8   6  -4   66.15   10.77
   8   6   4   49.88   13.75
  -6   8   4   55.62   14.65
  -8  -6   4   41.75    6.13
  -6   8   4   46.85    9.70
  -8  -6  -4   48.13   13.14
  -8  -6  -4   94.37   14.24
  -8  -6   4   59.90    9.19
  -6   8   4   72.02   12.88
   6  -8   4   51.55   13.70
   6  -8   4   67.07   15.92
  -8  -6   4   53.64   10.61
   6  -8  -4   45.34   13.89
  -8  -6  -4   59.50   10.81
   6  -8  -4   40.43    9.61
  -6   8  -4   37.59    5.18
   8   6  -4   35.97    5.03
  -6   8  -6   47.35   17.97
  -8  -6  -6   66.16   13.81
  -6   8   6   94.33   18.03
   6  -8   6   68.10   18.30
   6  -8  -6   65.61   11.22
  -8  -6   6   50.51   10.44
  -8  -6  -6   66.85   15.75
   8   6  -6   80.35   14.95
   6  -8   6   69.21   14.59
   8   6   6   82.59   18.98
  -6   8  -6   89.96   19.00
  -8  -6   6   89.73   16.11
  -6   8   6   49.57   14.18
  -8  -6   6   61.00    9.49
   8   6  -6   41.98    5.20
  -8  -6  -6   75.36   18.70
  -8  -6   6   80.66   14.80
   8   6   6   87.38   14.36
   6  -8  -6   98.88   17.75
  -6   8   6   54.67   18.85
   6  -8   8    4.00   17.34
  -8  -6   8   15.38   17.83
  -6   8   8  -23.62   15.65
  -8  -6  -8   19.31   17.18
   8   6  -8  -10.86   17.88
  -8  -6   8   -3.44   19.43
   8   7  -1   11.02   10.44
   8   7   1   21.55    8.80
  -8  -7   1   23.65    8.94
   7  -8   1   18.36   14.00
   8   7   1   10.02    8.88
   7  -8   1    7.26   11.81
   7  -8  -1   21.17   11.81
   7  -8  -1   31.26   12.03
   8   7  -1   30.27    9.48
  -8  -7   1   41.31    9.65
  -8  -7  -1   15.65    8.86
  -7   8   1   27.41   11.07
   7  -8   1   33.43   10.94
  -7   8   1   20.81   11.78
   8   7  -1    9.87    7.09
  -8  -7  -1    5.56   11.34
  -8  -7   1   17.76    5.57
  -7   8  -1   15.38   10.32
  -7   8  -3  -10.35    7.18
  -8  -7   3   -8.52    7.06
   7  -8  -3   -8.45   12.72
  -7   8  -3  -10.06   13.95
  -8  -7   3    6.19    8.20
  -8  -7  -3    6.57   12.28
   7  -8  -3   -4.00    9.36
   8   7   3  -19.26   11.63
  -7   8  -3   12.04   15.10
  -8  -7   3   -2.78    8.13
   8   7  -3   14.29    6.39
  -7   8   3    3.63   11.52
  -7   8   3   14.72    8.88
   7  -8   3   -1.21   15.18
  -8  -7  -3   14.00   12.17
   7  -8   3   -5.00   10.62
  -8  -7  -3  -19.93    9.80
  -8  -7   3    5.13    6.60
   8   7   3  -18.99   12.63
   8   7  -3    4.07    7.97
  -8  -7   5  -12.12   11.47
  -7   8   5   -9.63   16.13
   7  -8   5  -18.56   15.35
  -7   8  -5  -38.23   16.13
   8   7   5  -15.63   15.58
  -8  -7   5   13.92    8.43
   8   7  -5   -8.45    5.30
  -7   8  -5    1.62    4.39
   7  -8   5   16.39   12.34
   8   7  -5   -3.59   12.35
  -8  -7   5   14.78   12.60
  -7   8  -5    7.72   15.71
  -8  -7  -5   -3.99   15.19
   7  -8  -5   17.73   15.35
   7  -8  -5   -3.86    9.03
  -7   8   5    2.79   12.57
  -8  -7  -5    4.48   11.46
   8   7   5    6.51   12.67
  -8  -7  -5   -6.39   13.75
  -7   8   5   14.33   14.73
   8   7   7   15.85   14.91
   7  -8   7    5.73   15.99
   8   7   7   25.59   20.14
   8   7  -7  -30.83   15.93
   7  -8  -7    7.72   18.23
  -8  -7  -7    5.42   19.41
  -8  -7   7   14.71   15.26
  -8  -7   7   -4.36   16.45
  -7   8   7   -1.80   18.71
  -7   8   7   -0.93   20.78
  -8  -7  -7    3.78   13.57
  -7   8  -7  -22.56   18.03
  -8  -7  -7    9.33   15.67
  -7   8  -7   -7.40   19.59
  -7   8   7   16.86   14.43
   7  -8   7  -27.60   19.42
   8  -8   0  190.46   17.55
   8   8   0  192.69   12.80
  -8  -8   0  227.92   15.16
  -8  -8   0  189.51   15.49
  -8  -8   0  194.94   12.27
  -8   8   0  170.33   15.60
   8   8   0  196.38   15.84
  -8   8   0  208.49   17.07
   8  -8   0  232.45   16.71
  -8  -8  -2  267.53   18.18
   8   8  -2  259.81   16.32
  -8   8   2  267.49   17.48
  -8   8  -2  267.80   17.82
  -8  -8   2  282.54   16.29
  -8   8  -2  206.02   20.46
  -8  -8   2  263.39   14.39
   8   8  -2  259.60   14.77
  -8  -8   2  269.36   14.99
   8  -8   2  276.59   18.23
   8  -8  -2  259.79   18.02
   8   8   2  272.80   18.49
  -8  -8   2  281.09   16.06
  -8  -8  -2  297.69   18.27
   8   8  -2  246.81   17.11
  -8   8   2  279.12   19.71
   8   8   2  238.69   18.67
   8  -8  -2  273.32   19.17
  -8   8  -4   15.97   14.77
  -8  -8   4   12.26    8.52
  -8  -8   4   32.23    7.94
  -8  -8  -4   36.93   11.43
  -8  -8   4   23.08    8.10
   8   8  -4   22.79    6.87
   8   8  -4   25.49   10.22
  -8   8   4   51.50   14.73
   8  -8  -4   35.22    9.67
   8  -8  -4   33.46   14.29
   8   8   4   35.25   14.34
  -8  -8  -4   34.12   13.62
  -8  -8   4    2.12   10.38
  -8   8   4   26.96    9.19
  -8   8  -4   28.23    7.02
  -8  -8  -4   15.85   13.19
  -8   8   4   50.14   12.75
  -8   8  -4   17.49   15.22
   8  -8   4   48.95   12.34
   8   8   4   14.71   11.82
  -8   8  -6    7.79   17.87
   8   8   6   29.88   18.62
  -8   8   6   29.13   14.14
  -8   8   6  -11.33   18.89
   8  -8   6   35.12   18.45
  -8  -8   6   -5.36   14.28
  -8  -8   6   16.98   12.71
   8  -8  -6   37.95   17.04
   8  -8   6   13.43   14.92
  -8   8   6  -15.97   18.07
   8   8   6   11.88   14.30
  -8   8  -6   13.14   17.79
  -8  -8   6   17.13    7.36
  -8  -8  -6  -12.23   15.23
  -8  -8  -6   -1.17   13.21
   8   8  -6    3.36   14.27
   8  -8  -6    9.75    9.38
  -8  -8   6    9.27    6.32
  -8  -8  -6   26.91   17.81
  -8   8  -8   -8.45   19.16
  -8  -8  -8   -2.59   17.04
  -8  -8   8  -10.06   19.02
   8   9   1    6.20   11.32
   9  -8   1    2.01   11.96
   8   9  -1    2.19    5.60
  -9   8   1   -5.29   11.94
  -8  -9  -1    3.68   12.25
   8   9   1    7.23   11.87
  -8  -9  -1    5.10    9.49
   8   9   1   13.87    9.56
   9  -8  -1    2.84   11.99
  -8  -9   1    5.81    4.95
   8   9  -1    5.12    9.90
   9  -8   1    7.00   10.94
   8   9  -1  -11.58   10.20
  -9   8  -1   10.47   10.97
   9  -8   1   28.16   15.93
  -9   8  -1  -16.45   14.56
  -9   8   1    7.29   12.52
  -8  -9   1  -23.62   10.17
   9  -8  -1   -1.96   12.11
  -8  -9  -1  -13.48   10.32
  -8  -9   1    0.31    3.76
  -8  -9   1   -3.99    9.02
   9  -8   3  170.94   15.83
   9  -8  -3  217.87   17.34
   8   9   3  182.21   17.19
  -8  -9   3  199.01   13.76
  -8  -9   3  181.28   11.97
   9  -8   3  181.47   19.45
   8   9  -3  184.10   12.57
  -8  -9  -3  182.14   16.16
  -8  -9   3  160.30   12.65
  -8  -9   3  166.30   12.54
  -8  -9  -3  168.93   16.48
   9  -8  -3  173.34   14.48
  -9   8   3  178.57   13.47
   8   9   3  206.27   16.00
  -9   8  -3  163.74   13.15
  -9   8  -3  176.37   20.05
   8   9  -3  196.54   12.86
  -8  -9  -3  207.05   15.63
  -9   8   5   10.70   15.32
  -9   8  -5    7.80    6.58
  -9   8  -5  -13.75   17.12
   9  -8  -5   -9.56    9.51
   9  -8   5   14.44   14.03
   9  -8  -5    8.04   15.37
  -8  -9  -5    2.19   12.02
  -9   8  -5   38.69   16.07
   8   9  -5   -5.24    7.37
  -9   8   5   -7.69   12.88
  -8  -9   5   -2.36    9.37
  -8  -9   5   -4.69    9.58
  -8  -9   5   -6.09    7.01
   8   9  -5  -10.23   12.50
   8   9   5   17.63   13.82
   8   9   5   14.73   15.96
  -8  -9  -5   -4.03   13.99
  -8  -9  -5    1.37   15.56
  -9   8   5   36.25   16.86
  -8  -9   5   -8.87   12.40
  -9   8  -7  -23.82   18.41
  -8  -9  -7   16.93   16.44
  -9   8   7   20.35   14.82
  -8  -9  -7   -6.15   14.56
  -8  -9   7    9.93   15.72
   8   9   7    4.99   15.42
  -9   8   7  -14.05   20.73
  -8  -9   7  -10.08   14.42
   9  -8   7   -7.60   16.86
   9  -8  -7    2.61   18.27
   8   9  -7  -19.39   16.10
  -7  -9   0    1.19    7.54
  -9   7   0   -3.54   13.59
  -7  -9   0  -11.40    9.89
   9  -7   0   -2.86   11.69
   7   9   0   -1.77   11.91
  -7  -9   0    9.14   10.01
   9  -7   0    7.28   13.40
  -9   7   0   11.67   12.12
   7   9   0    0.30    6.48
   7   9   0    2.91    9.97
  -7  -9   2   17.09    6.06
   9  -7  -2    7.15   11.63
   7   9  -2   12.88    9.04
   7   9  -2   16.99    8.96
   9  -7  -2    8.71   10.26
   7   9   2   32.08   11.13
  -9   7  -2   20.26    9.13
  -9   7  -2    6.07   10.51
  -7  -9  -2   25.31   11.20
  -9   7   2   13.26    9.31
   9  -7   2   15.97   12.82
  -9   7  -2    5.65   12.79
  -7  -9   2   16.60    4.17
  -7  -9   2   14.13    6.61
  -7  -9  -2   22.89   11.12
  -7  -9   2    9.95    9.30
   9  -7   2   18.88   11.18
  -7  -9   4    6.03   10.15
  -9   7  -4   -4.13   15.87
   9  -7   4    7.50   11.87
   7   9  -4   -5.66   10.24
  -7  -9  -4    3.37   10.94
   7   9   4    4.09   11.90
  -7  -9  -4   -9.86   12.90
  -9   7   4  -14.71   14.28
  -9   7  -4    7.89    7.72
  -9   7   4  -18.26   13.73
   9  -7  -4   -1.10   13.25
  -7  -9   4    3.18    6.54
  -7  -9   4    2.55   10.34
  -7  -9   4   -0.28    7.13
   7   9   4   -1.82   14.20
  -9   7   4   -3.87    8.03
   9  -7  -4   -0.27    8.81
   7   9  -4    8.21    8.14
  -7  -9  -4   -5.10   12.88
  -7  -9   6   -2.77    3.99
  -9   7  -6   21.55   17.92
  -9   7   6  -17.52   17.70
  -9   7  -6  -12.03   17.74
   7   9   6  -15.82   14.00
  -9   7   6    3.94   18.43
  -7  -9   6   -6.32   12.48
  -9   7  -6   15.73    6.78
   9  -7   6   41.42   18.02
  -7  -9  -6   29.76   13.40
   7   9   6   21.49   18.67
  -7  -9   6   10.81   14.35
   7   9  -6    1.73   14.38
  -9   7   6   -8.57   13.88
   7   9  -6   -1.37    8.77
  -7  -9  -6   -7.91   17.39
   9  -7  -6    2.72    8.61
  -7  -9  -6   -7.08   14.96
  -7  -9   6   -0.70    3.76
   9  -7  -6    7.42   16.52
   9  -7   6   -4.68   14.54
  -9   7  -8  -28.07   19.85
   7   9   8   35.72   17.25
   7   9  -8  -23.78   18.72
  -7  -9  -8    5.04   16.34
  -7  -9   8   27.92   18.92
  -6  -9   1   62.56    7.48
   6   9   1   50.14   10.22
  -6  -9   1   59.01   11.46
   9  -6   1   41.30   12.76
   6   9  -1   65.14   10.62
   6   9   1   44.09   10.90
   9  -6   1   61.51   14.81
  -6  -9  -1   49.93   11.01
  -6  -9  -1   51.06   10.32
  -9   6  -1   63.01   11.74
  -9   6  -1   49.61   14.01
   9  -6   1   58.12   11.99
   6   9   1   46.29   12.34
   9  -6  -1   43.53   12.65
  -6  -9   1   45.29    8.67
  -9   6   1   41.50   11.56
   9  -6  -3    1.97    8.65
  -6  -9  -3    6.41   12.27
  -6  -9   3   -4.12    8.64
  -6  -9   3   14.21    6.45
  -9   6  -3   42.75   15.93
  -9   6   3    8.04   12.99
   6   9   3    9.61   10.91
   6   9  -3   12.15    8.60
  -6  -9   3    9.80    6.81
   6   9  -3    8.49    8.91
  -6  -9  -3    2.08    9.90
  -6  -9  -3   14.21   10.93
   6   9   3   -5.73   12.28
  -9   6  -3   17.29    8.49
  -9   6   3    3.79    7.65
   9  -6   3   -7.77   10.90
  -6  -9   3   14.41    9.95
   9  -6  -3   13.62   11.96
   9  -6  -3    5.69   12.32
   9  -6   3   10.63   13.29
  -9   6   5   -7.03   12.42
   6   9   5    7.21   12.61
  -9   6  -5    5.84    7.35
  -6  -9  -5   28.29   11.63
   9  -6  -5    1.86   14.41
   9  -6  -5    3.24    7.66
  -6  -9  -5    4.32   13.54
  -6  -9   5   27.11   12.26
  -9   6  -5   19.26   17.34
   9  -6   5   -4.65   12.75
  -9   6   5    1.94   15.32
  -6  -9   5    9.10   10.39
   6   9  -5   -2.88   12.47
  -9   6   5    7.44   14.42
  -6  -9   5   -6.45    9.92
  -6  -9  -5    7.34   14.35
   6   9  -5  -10.64    9.11
  -6  -9   5   -5.60    4.06
   6   9   5  -11.58   16.25
   9  -6   7   39.06   19.87
   6   9   7    8.88   15.10
  -9   6   7   -5.28   19.33
   6   9   7   30.65   21.03
  -9   6  -7   20.86   18.64
  -9   6   7   33.89   19.73
  -6  -9   7   19.38   14.14
   9  -6   7   44.92   16.97
  -6  -9  -7   16.98   14.64
  -6  -9  -7  -25.98   15.70
   9  -6  -7   55.00   18.35
   6   9  -7   -5.68   16.61
  -9   6   7   33.87   14.33
  -6  -9   7    4.41   17.07
  -9   5   0  -10.68   11.00
   5   9   0    1.29   10.90
  -5  -9   0    5.14    9.01
  -9   5   0   14.59   12.19
  -5  -9   0   -7.46    8.66
   5   9   0   -1.94    9.44
  -5  -9   0   16.80   10.11
   9  -5   0   -4.57   12.62
   9  -5  -2  144.96   12.28
  -9   5  -2  141.74   15.68
  -5  -9  -2  134.74   14.31
  -5  -9   2  144.26   11.42
   5   9   2  139.75   14.02
   5   9   2  119.95   15.34
   9  -5  -2  151.60   13.80
  -5  -9   2  144.20    9.71
   5   9  -2  113.09   11.06
   9  -5   2  146.05   14.55
  -5  -9  -2  147.27   14.47
  -5  -9  -2  163.45   13.08
  -9   5  -2  140.98   12.39
  -9   5  -2  137.66   14.20
   9  -5   2  137.08   15.33
   5   9  -2  136.28   12.40
  -9   5   2  147.31   11.32
  -5  -9   2  107.98   12.47
   9  -5  -2  159.89   14.25
  -5  -9   4   -1.52    4.06
   9  -5   4   16.50   14.13
  -5  -9   4   14.28   11.21
   5   9   4    5.26   11.31
   9  -5   4    9.51   11.97
  -5  -9   4   -5.77    6.73
  -9   5   4    2.58   12.90
  -9   5  -4    3.81    7.80
   5   9  -4    0.78   10.57
  -9   5  -4    1.33   15.48
   9  -5  -4  -12.63   12.51
  -5  -9  -4   -9.49   12.17
  -5  -9  -4   -8.38   13.53
  -5  -9   4   -8.64   10.77
   5   9   4   -9.51   14.30
  -5  -9  -4   27.86   10.75
   9  -5  -4    4.19    6.77
   5   9  -4    3.60    8.91
  -9   5   4  -17.16   13.98
   9  -5  -6   22.20   15.60
  -5  -9  -6   27.87   16.79
   9  -5   6   46.83   15.61
  -5  -9  -6   11.05   14.39
  -9   5   6   72.51   17.33
  -5  -9   6   43.46   13.38
   5   9  -6   35.58   14.97
  -9   5   6   12.95   12.94
   5   9   6   47.49   13.91
  -5  -9   6   54.25   16.14
  -9   5   6   56.58   17.52
  -5  -9  -6   44.63   13.36
  -9   5  -6   28.59    8.88
   5   9  -6   11.54   10.28
   9  -5  -6   22.12    6.45
  -9   5  -6   14.09   17.00
   5   9   6   40.54   18.50
  -9   5  -6   20.32   18.31
   5   9  -8  -22.64   19.20
  -9   5  -8  -40.17   19.62
   5   9   8   -5.15   16.57
  -5  -9  -8    3.88   15.61
  -5  -9   8    6.14   19.20
   4   9  -1   95.41    9.92
   9  -4  -1  119.68   12.77
   4   9   1   95.44   12.01
  -9   4  -1   91.08   12.59
   9  -4   1   79.40   15.26
  -9   4  -1   85.62   14.72
   9  -4   1  110.91   12.48
  -4  -9  -1   91.11   11.79
  -9   4   1   89.02   11.83
  -4  -9   1  114.05    9.44
   4   9  -1   96.21   11.30
  -4  -9  -1   84.24   10.91
   4   9   1  104.06   11.59
  -4  -9   1  107.76   11.70
   9  -4  -1   94.20   13.59
   9  -4   3   32.97   12.16
   4   9   3   40.62   11.63
  -4  -9   3   40.48    9.92
  -4  -9   3   38.13   11.26
  -9   4  -3   49.37    9.14
   9  -4   3   38.57   11.88
  -4  -9  -3   46.08   11.51
  -9   4   3   21.90   12.67
   9  -4  -3   31.38   11.62
  -4  -9   3   45.96    6.45
  -9   4   3   18.93   12.02
   9  -4  -3   30.31   12.32
   9  -4  -3   40.71    6.81
  -9   4   3   34.42    6.12
   4   9   3   28.69   12.87
  -4  -9   3   37.70    5.33
   4   9  -3   42.68    9.71
  -4  -9  -3   34.51   12.87
  -9   4  -3   43.58   14.29
  -4  -9  -3   25.63   10.76
   4   9  -3   31.88   10.36
  -9   4  -3   16.76   14.47
  -9   4  -5   16.65   15.74
   9  -4   5    8.82   13.88
  -4  -9  -5    0.66   14.38
   4   9   5    9.96   15.00
   4   9   5    4.76   12.23
   4   9  -5    1.03   13.18
  -4  -9   5   15.99   12.76
  -9   4   5   -6.41   11.75
   9  -4   5    6.39    9.26
   9  -4  -5    5.72   13.18
  -4  -9   5   -4.74   12.17
  -9   4  -5   12.22    7.91
  -4  -9   5    6.41   10.04
  -4  -9  -5   15.25   12.64
  -9   4   5   11.48   14.34
   4   9  -5   10.47    9.86
  -9   4   5   18.61   14.47
  -4  -9  -5    4.76   12.02
   9  -4  -5    6.72    4.83
  -4  -9  -7  -14.37   14.58
  -9   4  -7  -19.58   20.40
  -9   4   7   13.66   19.11
   9  -4  -7   11.58   16.87
  -4  -9   7    4.56   16.79
   4   9   7  -16.39   14.72
   9  -4   7   -6.66   19.48
   9  -4   7   24.44   16.81
  -9   4   7    6.76   18.24
  -9   4   7    9.18   13.90
  -9   4  -7   -4.98   18.16
  -4  -9   7   26.58   14.21
  -4  -9  -7   14.93   14.60
   4   9  -7    6.73   16.83
   3   9   0   -1.24    5.57
   9  -3   0    4.29   12.11
  -3  -9   0   -1.41    8.70
   3   9   0   -5.31    8.61
  -3  -9   0   12.16   10.92
   3   9   0   -8.69   10.95
  -9   3   0  -17.30   12.12
  -3  -9  -2  408.17   23.27
   3   9   2  418.84   23.55
  -3  -9   2  395.41   22.74
  -3  -9   2  367.17   19.09
   9  -3  -2  377.75   23.47
  -3  -9   2  406.82   19.77
  -3  -9  -2  401.22   22.27
  -3  -9   2  424.50   22.20
  -9   3  -2  388.10   23.02
   9  -3   2  403.54   23.17
  -9   3  -2  381.17   22.26
   3   9   2  406.03   23.69
  -9   3   2  430.53   23.65
  -3  -9   2  325.24   19.03
  -3  -9  -2  386.06   23.22
   9  -3   2  427.63   24.13
   9  -3  -2  420.90   21.10
   3   9  -2  397.14   22.19
  -9   3  -2  426.86   24.04
   9  -3  -2  373.44   22.46
  -9   3   2  381.98   20.38
   9  -3   4    7.01    9.52
   3   9   4   -5.98   11.16
   9  -3   4  -13.20   13.59
  -3  -9  -4  -17.13   13.62
  -3  -9  -4    7.25   11.82
  -3  -9   4   10.46   11.71
  -3  -9   4   -8.92   11.13
  -3  -9  -4   -0.46   11.08
   3   9  -4    6.83   11.74
  -9   3   4    5.37   13.46
   3   9   4   15.21   14.00
   9  -3  -4   -0.45   11.61
  -9   3  -4   22.41   13.29
   9  -3   4   -4.01   11.53
  -9   3  -4    2.36    7.95
   3   9  -4  -10.02    9.82
  -9   3  -4  -19.48   15.14
  -9   3   4    7.54   12.67
  -9   3   6  -26.17   16.67
  -3  -9  -6   15.09   13.44
   9  -3   6    6.08   10.47
  -9   3  -6   -4.54    8.79
   9  -3  -6    6.47   15.36
   3   9  -6    4.54   15.21
   3   9   6   -4.67   13.14
  -9   3  -6   17.11   16.68
  -3  -9  -6  -13.17   13.65
  -9   3   6  -23.08   17.24
  -3  -9   6   -3.89   15.18
   3   9   6  -24.17   18.67
   9  -3   6    2.07   15.40
   3   9  -6   -4.05   11.74
  -9   3   6  -11.28   12.08
  -3  -9   8  -31.58   20.02
  -9   3  -8   19.35   18.95
   3   9   8  -41.48   16.56
   3   9  -8   -0.88   18.70
   2   9  -1   -5.93   10.96
  -9   2   1   -4.05    9.64
   9  -2  -1    4.31   10.94
  -9   2  -1   10.90   12.28
  -2  -9   1    8.47   10.36
  -2  -9  -1   -5.05    9.04
  -9   2  -1   15.09   10.72
  -9   2  -1    6.93   10.36
   9  -2   1   -2.49    9.93
  -9   2   1   13.66   11.61
   2   9  -1    2.16    7.07
   9  -2  -1   -4.77    9.18
  -2  -9  -1   -6.97   10.28
   2   9   1   10.76    9.33
  -2  -9   1    0.18    7.07
   2   9   3   79.96   13.02
   9  -2   3   90.64   13.12
  -2  -9  -3   83.07   13.68
  -2  -9   3   85.47   12.06
  -9   2  -3   96.59   14.86
  -9   2   3  108.97   14.28
   9  -2  -3   99.37   12.60
  -9   2   3  112.49   12.73
   2   9  -3  116.81   13.18
  -9   2  -3  110.13   10.53
   2   9   3  107.25   14.61
  -2  -9  -3   79.26   12.94
  -2  -9   3  107.46   13.51
   9  -2  -3   99.44   12.39
  -9   2  -3   77.40   16.79
   9  -2   3  104.37   13.62
   2   9  -3  105.27   12.23
   9  -2   3   72.32   11.15
  -2  -9  -3   86.10   11.85
   2   9   3  112.43   12.40
  -9   2  -5   24.30    8.69
   9  -2   5   22.60   13.35
  -2  -9  -5   15.09   12.42
   9  -2  -5   -0.53   12.39
  -2  -9   5   35.65   13.53
   2   9  -5    8.26   12.06
  -2  -9  -5   43.19   12.68
  -9   2   5   21.54   14.38
   2   9   5   27.36   16.00
   2   9   5   -6.70   12.05
   9  -2   5   16.40   15.14
   2   9  -5   -1.10   13.46
  -9   2   5   35.26   14.02
   9  -2   5   14.54   10.08
  -2  -9   5   20.19   13.21
  -9   2  -5   30.77   15.98
  -2  -9  -7   21.62   13.97
  -9   2   7   24.58   18.15
  -2  -9   7   33.02   17.74
  -9   2   7   16.12   12.38
   2   9   7    7.04   14.06
   9  -2   7   -3.21   17.08
  -2  -9  -7   41.82   19.00
  -9   2   7   38.95   18.17
  -9   2  -7   12.53   17.93
   2   9  -7  -11.78   18.39
   9  -2  -7   -7.32   16.02
   1   9   0   10.64   11.12
   1   9   0   -2.69    6.61
  -1  -9   0    2.48    8.41
  -9   1   0    1.77   11.13
   1   9   0   15.25    9.10
   9  -1   0    7.46    8.15
   9  -1   0   -9.80   10.91
  -9   1   0    5.65   10.09
  -1  -9   2   -2.61    5.60
  -1  -9  -2    3.40   10.15
   1   9  -2    2.98    5.21
  -1  -9   2   -5.59   10.64
   9  -1  -2  -20.98   11.41
  -9   1  -2   12.73   10.17
  -1  -9   2    4.77   11.68
   1   9   2   18.07   11.91
   9  -1  -2   11.32    8.82
  -1  -9  -2   14.12   12.05
   1   9   2    3.25   10.10
   1   9  -2  -14.40   10.87
   9  -1   2   -4.82   10.75
  -9   1   2   -8.63   11.71
   1   9   2  -15.89   10.90
  -1  -9   2   -1.51    5.10
   9  -1   2  -15.49   11.48
  -1  -9  -2    3.62   10.76
  -9   1  -2  -15.07   12.02
  -9   1   2   -0.74    5.11
   1   9  -4   12.51   12.51
  -1  -9   4  -17.51   13.12
  -9   1   4   11.53   12.66
   9  -1   4   -1.51   11.49
  -1  -9  -4   -4.68   11.04
  -9   1  -4    0.64   14.68
   9  -1  -4    6.94   11.17
   9  -1   4  -25.16   12.96
  -9   1  -4   -0.64    8.50
   1   9  -4  -12.53   11.58
  -1  -9  -4   -1.80   10.91
  -9   1  -4    2.22   13.29
   1   9   4   15.04   10.78
  -9   1   4    1.73   11.47
  -1  -9   4   15.09   11.66
   1   9   4    6.97   13.98
   9  -1   4    4.37    9.54
   1   9   6  -10.30   13.31
   1   9  -6    5.46   15.75
   9  -1   6   13.06   17.59
  -9   1   6  -14.16   16.31
  -9   1   6    6.19   15.78
  -9   1  -6    0.75    9.68
  -9   1   6   -0.93   11.60
   9  -1   6    9.87   11.45
  -1  -9  -6   -3.78   16.14
   1   9  -6   -6.30   12.72
  -1  -9   6   14.81   15.43
  -9   1  -6  -14.84   18.21
   9  -1  -6   15.75   14.03
  -1  -9  -6   21.14   13.31
   9  -1  -8  -14.83   17.63
  -9   1   8    1.87   20.59
  -9   1  -8   -1.80   18.95
   1   9   8   -2.09   15.07
   0   9  -1  245.49   13.40
   0   9  -1  232.74   14.30
   0  -9  -1  229.82   17.37
  -9   0  -1  236.60   16.57
  -9   0  -1  201.76   15.76
   9   0  -1  220.28   16.67
  -9   0   1  225.90   15.27
   9   0   1  242.30   16.89
   9   0   1  215.92   17.24
   0   9   1  256.41   17.37
   0   9   1  259.39   16.23
   0  -9   1  266.12   17.75
   0  -9   1  268.99   13.55
   0   9   1  249.64   15.46
  -9   0   1  229.87   16.31
   9   0   1  214.73   15.96
   0  -9  -1  227.47   16.43
   0  -9   1  240.54   14.46
  -9   0  -1  248.00   16.90
   0  -9  -1  243.95   17.07
   0   9  -1  239.77   16.80
  -9   0  -3  188.70   15.13
  -9   0   3  213.56   17.06
   9   0  -3  219.53   16.42
   0  -9  -3  207.54   16.52
   0   9  -3  223.71   17.13
   0   9   3  210.07   18.19
   9   0  -3  208.32   15.17
  -9   0   3  257.71   15.98
   0  -9   3  217.71   16.77
   0   9   3  219.31   17.02
   0  -9   3  198.96   18.00
   0   9   3  242.93   16.66
   0   9  -3  200.04   16.93
   0   9   3  207.67   16.70
   9   0   3  213.92   16.07
   0  -9  -3  209.67   16.43
   0  -9   3  224.44   13.87
   9   0   3  219.32   17.62
  -9   0  -3  225.49   18.12
   0   9   5   -3.91   13.73
  -9   0  -5  -10.96    8.80
   0  -9   5    3.46   13.63
  -9   0   5   16.02   13.49
   0  -9  -5    8.26   11.74
   9   0   5    7.17   10.79
   9   0  -5   16.01   12.00
  -9   0  -5    3.31   15.45
  -9   0   5    9.19   13.76
   0   9  -5    7.61   14.10
  -9   0  -5   -0.72   15.29
   9   0   5   27.88   15.21
   0  -9   5  -10.07   13.95
   0   9  -5    0.49   13.17
   0   9   5    6.68   11.76
  -9   0  -7    7.66   18.37
   0  -9  -7   -0.86   18.10
  -9   0   7    1.56   17.44
   0   9  -7   -7.39   17.77
   0   9   7   25.63   18.01
   9   0  -7   -4.17   15.60
  -9   0   7  -12.57   11.71
   0   9   7  -14.28   20.82
   0  -9   7   -9.76   17.65
   0  -9  -7    1.18   13.00
   0   9   7   11.35   14.39
  -9   0   7  -12.62   18.44
   9   0   7    2.47   12.53
   0   9  -7   14.92   14.67
   1  -9   0   -2.89    7.77
   9   1   0    4.07    7.05
  -9  -1   0   -4.19    9.37
  -1   9   0    6.20    7.87
   9   1   0    0.26   10.01
   1  -9   0    2.40    8.79
  -1   9   0    2.54    8.55
   9   1  -2    7.75   10.23
   1  -9  -2    3.53    9.95
   9   1   2   20.04   11.17
  -1   9  -2   25.08   12.48
   9   1   2   18.21   10.88
  -9  -1   2    2.84    4.44
   1  -9  -2    2.40   11.03
  -9  -1   2    3.05    3.54
   1  -9   2   10.62   11.49
  -9  -1  -2   -8.53   10.20
   9   1  -2    9.70    7.46
  -1   9   2  -11.82   10.75
  -1   9   2   -5.71   12.88
  -9  -1  -2   26.07   11.94
  -1   9   2  -15.56   10.92
   1  -9   2    6.19   11.19
   9   1   2    5.12   11.29
  -9  -1   2   20.75   10.68
  -1   9  -2    9.72    5.07
   1  -9   2   15.37    7.03
  -1   9  -4   25.14   12.93
   9   1   4   23.29   10.60
  -1   9   4   40.54   11.62
   1  -9  -4   16.89   10.93
   1  -9   4   23.12   12.40
   1  -9   4   16.99    8.92
  -9  -1   4   20.48   12.44
  -1   9   4   10.27   13.38
   9   1   4   15.47   13.48
  -1   9  -4   26.46   13.04
   1  -9   4   -5.83   14.03
  -9  -1   4    9.17   11.43
   9   1  -4   29.61   10.46
  -9  -1  -4   17.33   13.57
  -9  -1  -4   11.58    9.36
   1  -9   6   19.02   16.25
  -1   9  -6  -11.89   14.77
  -9  -1  -6   10.12   17.36
   1  -9  -6    9.82   16.65
   9   1   6    0.49   12.19
  -1   9  -6    9.31   15.79
  -9  -1  -6    3.20   17.14
  -9  -1  -6  -22.29   11.21
   1  -9  -6    4.65   12.55
  -9  -1   6   -5.24   15.27
   9   1  -6   -9.81   14.32
   9   1   6  -13.90   17.97
  -9  -1   6    8.43   15.42
  -1   9   6   -7.44   12.80
  -1   9   6   -3.28   18.12
  -9  -1   6   -3.74   10.64
   9   1  -8   22.17   17.49
  -9  -1  -8    6.52   19.46
  -1   9   8  -15.89   15.38
  -9  -1   8  -47.04   19.76
  -9  -1   8    4.52   19.91
  -9  -2  -1   23.60    9.27
   9   2   1   25.78   11.36
   9   2   1   15.39    8.93
  -2   9   1   16.90    9.99
  -9  -2  -1   20.53   10.06
  -2   9   1   16.67   10.89
  -2   9  -1   17.40    7.04
   9   2  -1   10.17    9.77
   2  -9  -1    8.18    9.90
  -2   9  -1   19.26    7.35
   2  -9   1   33.12    7.77
   9   2   1   26.66   10.40
  -9  -2   1   32.21   11.22
  -2   9  -1   27.58   12.15
  -9  -2   1   24.50    9.44
   2  -9   1   25.02   11.43
  -2   9   1   12.29   10.16
   2  -9  -1    4.72   11.03
  -2   9  -3   10.72   13.16
  -9  -2   3    5.06    9.11
   2  -9   3   20.33    8.74
   9   2   3   42.50   12.03
  -9  -2  -3   14.10   11.98
  -9  -2  -3   11.53    9.75
   2  -9   3   13.55   12.36
  -2   9   3   28.93   11.79
   9   2   3   27.73   11.60
  -9  -2   3   31.15   10.98
   2  -9   3    9.29   13.48
   9   2  -3   19.80    8.79
   2  -9  -3   15.73   10.30
   9   2  -3   24.09   10.19
  -2   9  -3   35.38   12.86
   9   2   3   12.14   10.46
  -2   9   3   27.92   12.38
  -2   9   3   36.01   11.04
   9   2  -5    8.29   11.89
   9   2   5   16.34   14.59
   2  -9  -5    5.86   13.98
   2  -9  -5   23.42   11.44
  -9  -2  -5  -16.38   14.83
  -9  -2   5   24.84   13.27
  -9  -2   5    2.04   13.07
   2  -9   5  -14.05   14.32
  -2   9   5    6.32   11.86
  -9  -2  -5   -3.16    9.57
  -2   9   5   -8.37   14.43
  -2   9  -5   -8.42   14.21
   2  -9   5   22.33   10.77
  -2   9  -5    3.10   14.69
   9   2  -7  -22.16   15.63
  -2   9   7    2.52   13.75
  -9  -2   7   19.33   17.08
  -2   9   7  -27.54   20.41
   9   2   7    3.96   13.34
   9   2   7  -13.51   19.75
   2  -9   7    6.75   18.47
   2  -9  -7  -12.48   12.95
   2  -9  -7  -32.70   18.27
  -9  -2  -7    1.76   18.37
  -2   9  -7   20.50   18.90
  -2   9   7   35.53   18.12
   2  -9   7   14.84   14.21
  -9  -2  -7  -16.20   12.01
  -9  -2   7   15.30   17.24
  -2   9  -7   -0.63   15.22
   3  -9   0    4.71   11.94
  -9  -3   0    2.52    9.26
   9   3   0   -2.43    5.27
   3  -9   0   -6.17    9.35
   9   3   0   12.53   11.13
  -3   9   0   -5.46    8.92
  -9  -3   0    0.40    5.58
   9   3   0    6.93    9.00
  -3   9   0   -0.22    9.28
   3  -9   2   16.99   11.48
  -9  -3   2    8.25    9.86
   9   3  -2    5.15    6.49
   9   3   2   -9.16   10.35
   9   3   2   11.08   10.62
   3  -9   2   12.81   13.32
  -9  -3   2   12.01    9.63
   9   3  -2    5.24    9.58
  -9  -3   2   10.94    4.70
  -3   9   2   -1.82   11.86
  -3   9  -2   -1.31    7.94
  -3   9  -2   -3.70   12.95
   3  -9   2   -9.40    8.82
   9   3   2   -1.49   10.80
  -3   9  -2   -1.96    5.62
  -9  -3  -2    0.34   10.09
  -9  -3   2    1.51    6.48
   3  -9  -2   11.85   10.79
  -3   9   2  -11.20    9.93
  -9  -3  -2   17.68   11.70
   3  -9  -2   15.72   10.23
  -3   9   4   14.52   11.44
  -9  -3  -4   15.04   12.74
  -3   9   4   24.54   14.28
   3  -9   4   -6.45   14.21
  -3   9  -4   13.94   13.76
  -9  -3   4   -4.71   11.57
  -9  -3   4    8.63   10.83
   3  -9  -4   20.70   13.48
   3  -9   4  -16.28   12.93
   9   3  -4    3.80   10.12
  -3   9   4   -4.43   12.62
  -3   9   4    0.40   10.50
   9   3   4    5.13   10.87
  -3   9  -4    8.64   13.81
   9   3   4   17.21   13.26
   3  -9  -4    8.95   10.40
   3  -9   4   -1.06    9.72
  -9  -3  -4    9.62    9.93
   3  -9   6   -5.32   13.14
  -9  -3   6  -11.38    9.81
  -9  -3  -6  -11.72   11.57
  -3   9  -6  -15.29   15.52
   9   3  -6    2.23   13.57
   3  -9   6   -2.21   16.48
   9   3   6    3.29   17.14
  -3   9  -6   29.21   17.58
   3  -9  -6    0.47   12.05
  -9  -3   6   -0.62   15.08
  -3   9   6  -21.05   13.89
  -9  -3  -6   -0.78   16.58
  -3   9   6   18.85   18.16
   3  -9  -6   20.42   16.80
  -9  -3   6   10.65   14.83
  -9  -3  -8  -22.34   20.00
  -9  -3  -8  -21.38   17.24
   9   3  -8  -26.84   17.45
   3  -9   8    0.74   16.56
  -3   9   8    6.91   15.56
  -9  -3   8   -5.28   19.89
  -9  -3   8  -24.19   18.80
  -9  -4  -1  897.86   46.46
  -4   9  -1  932.43   46.58
  -4   9   1  873.11   47.35
  -9  -4   1  914.72   46.42
  -4   9   1  957.74   47.43
  -4   9  -1  887.28   48.32
  -9  -4   1  981.84   47.45
   9   4   1  911.35   46.45
   4  -9  -1  941.84   47.62
  -9  -4   1  911.82   46.13
   4  -9   1  926.35   46.69
   4  -9   1  969.82   47.54
  -4   9   1  952.64   47.44
   9   4   1  907.55   47.22
   4  -9  -1  913.86   47.17
  -9  -4  -1  832.18   47.26
   9   4  -1  903.06   46.58
  -4   9   3   19.76   12.07
   4  -9   3   45.71   14.56
  -9  -4   3   18.88    8.62
   4  -9   3   12.34    9.74
   9   4  -3   42.17    8.48
  -9  -4   3   20.15    8.45
  -4   9  -3    1.85   12.88
  -4   9   3   17.07   12.89
  -9  -4  -3   46.81   10.55
   4  -9  -3   27.43   13.28
  -9  -4   3   31.40   10.18
  -4   9   3   27.47   12.68
   9   4  -3   40.46    9.60
  -4   9  -3   16.21   14.68
  -4   9   3   43.85   10.27
  -9  -4  -3   23.07   12.29
   4  -9   3    3.69   13.08
   9   4   3   25.57   11.29
   4  -9  -3   30.53    9.83
  -4   9  -3   23.50    4.31
   9   4   3   46.09   11.92
   9   4  -5   16.90   11.16
   4  -9   5    5.50   11.01
   4  -9  -5   -7.76   10.29
  -9  -4  -5   -6.13   10.65
  -9  -4  -5    7.25   14.37
  -4   9   5   -0.55   11.95
  -4   9   5   23.80   16.05
  -4   9  -5   -7.52   15.18
   9   4   5   29.02   14.99
   4  -9  -5  -15.80   14.91
   4  -9   5    9.01   14.51
  -4   9  -5    9.15   14.66
  -9  -4   5    7.56   13.09
   9   4   5   29.37   12.70
  -9  -4   5    0.98   12.87
  -4   9  -7   34.16   17.11
   9   4  -7   24.90   15.34
  -4   9   7   11.53   13.98
   4  -9   7   22.06   14.59
  -9  -4  -7   30.66   12.79
   4  -9  -7  -24.26   18.09
  -9  -4  -7    2.71   18.48
  -4   9  -7  -14.18   19.19
  -4   9   7  -13.29   19.80
  -9  -4  -7  -13.35   16.63
   9   4   7  -14.64   20.86
   4  -9   7  -29.68   19.16
   9   4   7   15.42   13.87
  -9  -4   7    2.97   16.76
  -4   9   7   -2.68   19.06
  -9  -4   7  -10.60   16.35
   5  -9   0   -4.43   12.51
  -5   9   0    0.70   12.42
  -9  -5   0  -10.86    9.92
  -9  -5   0   -1.77    4.72
   9   5   0   -6.80    4.34
  -5   9   0    9.61   10.37
   5  -9   0    9.25   10.32
  -9  -5   0    3.62    7.93
   9   5   0    4.50   11.12
  -9  -5   0   14.68   10.57
   9   5   0   -6.02    8.29
  -5   9  -2    0.46   14.45
   5  -9   2    5.97   14.93
  -5   9   2   15.27   11.89
   5  -9  -2    7.76   12.15
   5  -9   2    1.22   12.47
  -5   9  -2   -6.09    9.07
  -9  -5  -2  -12.17   10.88
   5  -9  -2    0.76   11.62
  -9  -5   2  -12.29    6.07
   9   5   2   16.50   10.68
  -9  -5   2   -9.02    4.23
   5  -9  -2   15.96   10.15
   5  -9   2   -2.83    9.29
   9   5   2  -13.80   11.23
  -9  -5  -2    4.77   10.84
  -5   9   2   -1.31   10.30
   9   5  -2   -2.85    4.63
   9   5   2    4.76   10.22
  -9  -5   2   11.66    7.94
   9   5  -2   -8.27    8.48
  -9  -5   2   -2.56    8.09
  -5   9  -4  112.31   16.52
  -5   9  -4  100.42   16.95
   9   5  -4  118.62   11.93
   5  -9  -4  119.59   15.18
   9   5   4  136.07   15.97
   5  -9   4   96.31   16.97
  -9  -5   4  109.48   12.15
  -5   9   4  125.58   16.77
  -5   9   4  105.08   12.22
   5  -9   4  142.10   15.49
  -9  -5  -4  160.42   15.82
   5  -9  -4  119.24   11.82
  -9  -5  -4  115.42   12.56
   9   5   4  104.20   13.53
  -9  -5   4  123.91   12.91
  -9  -5   4  120.59   13.72
  -5   9   4  123.49   14.37
   5  -9   4  123.91   13.06
  -9  -5   6   -9.32   14.57
  -5   9  -6  -23.43   17.33
  -9  -5   6   -5.18   10.62
   5  -9   6  -15.35   13.45
  -9  -5   6    4.79    9.14
  -9  -5   6   33.89   14.70
  -9  -5  -6    6.21   11.68
   5  -9   6  -34.72   17.89
  -5   9   6    6.30   16.66
  -5   9   6   -4.11   17.62
   9   5   6   17.56   18.18
  -5   9   6   27.27   13.77
   9   5  -6  -14.76   13.82
   5  -9  -6   11.46   16.35
  -9  -5  -6   10.06   15.16
  -9  -5  -6  -13.33   17.03
   5  -9  -6   -2.11   11.13
  -5   9  -6    7.03   16.59
   9   5   6   -4.01   12.90
  -9  -5   8  -15.06   18.19
   5  -9   8    0.77   16.87
  -9  -5  -8   39.84   17.96
  -9  -5   8   18.83   19.49
   9   5  -8   25.72   17.55
  -9  -5  -8  -24.48   21.46
  -5   9   8   16.72   15.40
   9   6  -1   76.94    9.32
   6  -9   1   70.60   11.62
   9   6   1   81.84   10.35
   9   6   1   95.64    9.96
   6  -9  -1   65.03   12.72
   6  -9  -1   84.83   12.63
  -9  -6   1   91.60    9.59
  -6   9   1   89.41   12.88
  -9  -6  -1   68.75   12.34
  -9  -6   1   85.29    8.41
  -6   9  -1   92.10   11.18
   9   6  -1   86.28   12.76
  -9  -6  -1   72.03    9.81
  -6   9   1   82.63   12.21
  -6   9  -3   19.73   14.16
  -9  -6  -3   12.25   11.80
   9   6  -3   15.77    7.65
   6  -9   3   10.99   13.00
   6  -9   3   15.21   10.60
  -9  -6  -3   26.74   10.65
  -6   9  -3   30.36    6.98
   9   6   3   42.28   12.47
  -9  -6  -3   19.74   12.36
  -6   9   3    1.39   11.72
  -6   9   3    4.50   13.01
   6  -9  -3   24.31   12.91
  -9  -6   3   27.94    9.23
   9   6   3   19.92   10.56
   6  -9  -3   35.25   10.16
  -9  -6   3    8.62    8.12
  -6   9  -3   28.53   13.50
  -9  -6   3   42.41    7.89
  -6   9   3   21.19    9.71
   6  -9   3   36.12   14.48
   9   6  -3   25.32    5.50
  -9  -6   3   11.17    5.20
  -6   9   5    2.85   12.72
  -6   9  -5    4.83   16.00
  -9  -6   5    4.25   12.83
   6  -9   5   33.99   15.41
  -9  -6  -5    1.97   13.52
   9   6   5   17.01   15.81
   9   6   5   17.87   13.00
  -9  -6   5   13.72   10.19
  -6   9   5    7.78   16.09
  -9  -6  -5    0.97   10.99
   6  -9   5   16.11   11.99
   6  -9  -5   14.41   10.00
   9   6  -5   13.03   11.39
  -9  -6  -5   20.03   14.93
  -9  -6   5    5.10   12.30
   6  -9  -5   32.27   15.55
  -6   9  -5   15.14   15.38
   6  -9   7  -21.27   15.38
  -9  -6   7  -25.21   17.63
  -9  -6   7  -13.96   15.71
   9   6   7   15.66   14.99
   9   6  -7   -5.21   14.89
  -9  -6  -7  -20.76   13.58
  -6   9  -7  -13.76   20.00
   6  -9  -7   19.20   18.52
  -9  -6  -7  -27.38   19.47
  -6   9  -7   -1.53   17.39
   9   6   7   21.69   20.47
   6  -9   7    0.91   18.71
  -9  -6  -7   11.99   16.49
  -6   9   7  -11.78   18.58
  -6   9   7   -6.64   14.62
  -6   9   7   18.08   20.00
   9   7   0   -0.42    8.06
  -9  -7   0    2.38   10.81
   9   7   0    5.96    5.45
  -9  -7   0    6.49   10.07
   9   7   0   -5.57   11.80
   7  -9   0    1.31   11.97
   7  -9   0    0.84   12.64
  -9  -7   0   -0.43    5.30
  -7   9   0   22.35   11.77
  -7   9   0   11.64   13.10
  -7   9  -2  276.62   22.21
  -9  -7  -2  324.59   19.42
   7  -9   2  263.42   22.30
   9   7  -2  314.73   17.26
   9   7   2  318.96   19.66
   7  -9  -2  289.48   19.27
   9   7   2  322.70   20.02
  -7   9  -2  306.06   18.70
  -7   9   2  324.21   19.01
  -9  -7   2  297.16   16.71
   9   7  -2  286.12   16.71
   7  -9  -2  325.23   21.02
  -9  -7   2  316.85   16.47
  -9  -7   2  254.77   15.17
   7  -9  -2  284.63   20.12
  -9  -7   2  259.98   17.79
  -9  -7  -2  318.30   19.31
  -7   9   2  332.43   20.34
   7  -9   2  291.95   19.38
   7  -9   4   18.00   11.38
   9   7   4    3.55   13.98
  -7   9  -4   15.77   14.32
  -7   9   4   11.17   12.36
  -9  -7   4    4.95    6.09
  -7   9   4   23.26    9.56
   9   7  -4   -2.13    4.82
   7  -9   4   28.76   14.25
  -9  -7   4   11.66    8.98
   7  -9   4   -2.12   16.09
   9   7  -4    6.07    9.27
  -9  -7  -4    0.46   10.55
  -9  -7  -4  -16.85   13.44
   9   7   4   37.16   12.21
   7  -9  -4   15.45    9.55
  -9  -7   4   16.17   10.26
  -7   9  -4    1.16    5.44
  -7   9   4   24.19   15.03
  -9  -7   4    9.81    8.85
  -9  -7  -4   -5.59   13.24
   7  -9  -4    7.00   13.44
   7  -9  -6   31.76   17.18
  -7   9   6   33.13   17.65
  -9  -7   6   19.60   13.49
  -7   9   6    7.46   19.19
   7  -9   6   28.21   17.59
   9   7   6   34.74   14.16
  -9  -7   6   20.00   14.08
   9   7   6    2.55   18.40
  -9  -7  -6    9.53   17.09
   7  -9   6   16.50   14.38
  -9  -7   6    5.58    9.19
  -9  -7  -6    5.11   13.05
   9   7  -6   17.91   13.58
   7  -9  -6   10.47   10.51
  -7   9  -6   28.50   18.32
  -9  -7  -6   16.97   15.44
  -7   9   6   17.69   13.90
  -7   9  -6   -0.76   17.21
  -7   9  -8    6.52   18.27
  -7   9   8   13.63   15.97
  -9  -7   8   14.16   19.25
  -9  -7  -8    1.76   17.73
  -9  -8   1   -2.28    9.59
   9   8   1  -11.50    8.70
   8  -9   1    7.36   12.84
   8  -9  -1   -2.77   11.68
   9   8  -1   12.59   10.77
   9   8  -1    3.95    9.42
  -9  -8  -1   -7.06    9.00
  -9  -8   1    6.22    5.98
  -8   9   1    0.36   10.89
   9   8   1   -2.39    8.49
   9   8  -1    7.25    7.17
   8  -9  -1   -4.74   12.14
  -9  -8  -1   -2.06   11.81
  -9  -8   1  -12.42    9.95
  -8   9   1   15.05   11.63
   8  -9   1   -4.21   11.60
   8  -9   1  -16.43   14.37
   9   8   1   12.68   11.09
  -8   9  -1   -6.51   10.77
   9   8  -3   79.49    8.46
  -8   9  -3   83.90   15.84
   9   8  -3   79.17    8.93
  -9  -8  -3   82.91   12.31
  -9  -8  -3   86.22   13.53
  -8   9   3   87.34   11.03
  -9  -8   3   84.95    8.59
   8  -9  -3  105.84   12.00
   8  -9   3  105.22   12.28
  -8   9  -3   88.76    9.54
   9   8   3  101.86   13.98
  -9  -8  -3   99.14   14.30
   8  -9  -3   91.19   13.64
  -9  -8   3   77.62    8.65
   8  -9   3   67.46   16.87
  -9  -8   3   89.16    8.88
   9   8   3   57.10   12.79
  -8   9  -5    9.71   17.88
   9   8   5  -14.61   13.38
   9   8   5   10.22   15.76
  -8   9   5  -14.35   16.13
   8  -9   5   29.71   13.18
   8  -9   5   31.44   15.57
   9   8  -5   16.36   12.23
  -9  -8   5    7.74    9.61
  -9  -8  -5   -4.78   15.24
  -8   9   5   26.59   16.27
   8  -9  -5    6.85   15.24
  -9  -8   5   -3.81   10.99
  -9  -8  -5   20.80   11.73
  -8   9  -5   22.02    5.11
  -9  -8  -5    8.86   14.25
  -8   9  -5   34.76   15.94
   9   8  -5   17.08    5.29
  -8   9   5   -0.60   13.70
  -9  -8   5   26.69   12.71
   8  -9  -5   10.58   10.25
   9   8   7   19.01   15.47
  -8   9   7    8.97   14.88
  -9  -8   7   29.46   15.92
  -9  -8   7   -7.47   15.13
   8  -9  -7    6.20   18.42
   8  -9   7   21.15   15.84
  -8   9   7   50.76   21.14
  -9  -8  -7   -5.96   14.31
   9   8  -7    3.91   15.41
  -9  -8  -7   19.68   17.14
  -8   9  -7  -21.47   19.00
   9   9   0    1.59    7.60
   9   9   0   -6.95   11.33
   9  -9   0   -6.68   14.36
  -9  -9   0   -1.85   10.35
  -9  -9   0   -4.69    6.88
   9  -9   0    9.29   11.86
  -9   9   0  -17.26   11.51
  -9  -9   0    6.94    9.97
  -9   9   0   -7.02   14.05
   9  -9  -2   -9.63   13.05
  -9  -9   2    5.27    7.46
   9   9  -2    2.21    5.49
  -9   9   2   -4.78   12.78
   9   9   2   12.08   11.19
  -9  -9   2   -0.97    4.09
   9  -9   2    9.68   11.26
   9   9  -2    8.51    8.99
   9  -9  -2    4.67   11.95
  -9  -9  -2    1.30   10.10
   9   9  -2    6.99    9.48
   9  -9  -2    7.61   11.69
  -9  -9  -2  -12.52   10.99
  -9   9  -2    7.09   11.04
  -9  -9   2   12.65    8.71
  -9   9   2   -4.80    9.75
  -9  -9   2    9.06    5.30
   9  -9   2   -0.49   12.08
   9   9   4  -10.47   14.16
   9  -9   4   10.11   12.27
   9   9  -4    0.32    9.44
  -9  -9   4   10.15    8.95
  -9  -9  -4   20.30   10.98
   9   9   4    8.28   12.10
   9  -9  -4   32.40   14.13
  -9  -9   4   -7.72    9.99
  -9  -9  -4   27.78   14.07
  -9   9  -4    6.30    7.63
  -9   9   4    9.22    8.87
  -9  -9  -4    4.03   13.64
  -9  -9   4   -8.45    7.99
  -9   9  -4   14.45   16.36
  -9   9  -4   -1.93   14.91
  -9   9   4   11.32   12.70
   9   9  -4    2.87    7.01
   9  -9  -4   -3.49   10.37
   9   9   6    8.01   14.43
  -9  -9   6    9.94   12.57
   9   9   6   26.24   18.49
  -9   9  -6   33.91   18.69
  -9   9   6    6.70   17.89
   9  -9  -6   11.06   17.05
  -9   9   6   -3.98   14.15
  -9  -9  -6   21.05   17.84
  -9  -9   6  -10.33   14.96
   9   9  -6   -2.16   13.39
  -9  -9  -6   19.84   13.65
  -9  -9  -6    8.43   16.11
   9  -9  -6   20.58   10.57
  -9   9   6  -11.69   17.99
   9  -9   6   15.81   14.96
  -9   9  -6    0.83   18.66
   9  -9   6   16.01   18.16
  -9   9   8   -2.99   16.52
 -10   9  -1  -17.40   15.04
  10  -9  -1   -4.47   12.86
 -10   9  -1    1.21   11.09
  -9 -10  -1    3.61   11.20
  -9 -10   1   -2.16    3.84
  -9 -10   1   -4.57    4.73
   9  10  -1    5.79   10.20
  10  -9   1    1.34   12.03
 -10   9   1   -7.63   11.24
   9  10   1   -5.12    8.29
  -9 -10  -1    1.62    9.20
  10  -9   1    6.91   15.49
 -10   9   1   20.11   12.55
  10  -9  -1  -31.87   12.58
  -9 -10   1   -7.83   10.05
  -9 -10   1   15.54    9.79
   9  10  -1   -0.39   10.81
  10  -9   1    3.72   12.14
   9  10  -1    9.19    5.57
   9  10   1    6.76    8.83
  -9 -10  -1    3.32   10.66
   9  10   1   -4.30   11.55
   9  10   3   -6.79   12.14
 -10   9  -3    7.21    8.97
  -9 -10  -3   18.54   11.28
   9  10   3   12.03   12.08
  10  -9  -3   -8.53   10.89
 -10   9   3   27.05    9.70
  -9 -10  -3   -5.27   12.33
  10  -9   3   26.23   12.74
 -10   9  -3  -36.49   16.79
   9  10  -3    0.56    8.17
  -9 -10   3   -1.25    9.30
 -10   9  -3    4.20   11.26
  -9 -10   3    1.75    6.45
  -9 -10   3   18.79    8.33
  -9 -10  -3   14.66   12.87
  -9 -10   3    6.78    6.92
  10  -9  -3    7.33   12.63
  10  -9   3    0.72   15.53
  10  -9   3   15.60   13.44
  10  -9   5    1.21   13.53
 -10   9  -5    2.44   18.22
  -9 -10   5   45.73   13.25
   9  10   5   31.01   14.60
   9  10  -5   38.43    8.39
 -10   9   5   31.82   16.56
 -10   9   5   42.98   10.19
  -9 -10  -5   57.46   16.28
   9  10   5   68.09   17.54
  10  -9  -5   66.67   16.04
 -10   9   5   39.36   14.29
  -9 -10  -5   53.46   13.55
  -9 -10  -5   21.49   15.33
  -9 -10   5   45.69    8.49
  -9 -10   5   52.89   10.80
 -10   9  -5   54.34    8.42
  -9 -10   5   45.74    9.54
   9  10  -5   47.81   12.26
 -10   9  -5   56.72   16.98
  10  -9  -5   49.78   11.51
   9  10   7   -5.29   16.32
 -10   9   7   17.40   15.39
 -10   9  -7   17.87   19.16
  10  -9   7   -7.74   16.97
  -9 -10   7   18.49   16.09
  -9 -10  -7  -18.57   17.31
   9  10  -7  -16.71   15.54
 -10   9   7   -6.75   20.40
  10  -9  -7   -5.39   19.20
  -9 -10  -7    5.01   14.85
  -8 -10   0  280.00   17.72
  10  -8   0  229.78   20.15
 -10   8   0  262.07   18.19
  -8 -10   0  280.14   16.91
   8  10   0  238.95   18.08
 -10   8   0  250.25   19.36
   8  10   0  216.49   17.63
  -8 -10   0  238.88   14.87
   8  10   0  239.35   14.55
  10  -8   0  269.63   18.63
  10  -8  -2  496.20   27.63
  -8 -10   2  482.42   23.93
 -10   8  -2  506.96   27.06
   8  10  -2  535.46   25.85
  -8 -10   2  401.06   23.09
  10  -8   2  446.44   27.75
  -8 -10  -2  456.49   26.67
 -10   8   2  499.75   26.22
  10  -8   2  482.82   27.35
  -8 -10   2  534.82   26.16
   8  10  -2  450.25   26.01
  -8 -10   2  483.61   24.98
  10  -8  -2  476.99   26.76
   8  10   2  495.05   27.03
  10  -8   4   53.08   13.22
  -8 -10   4   22.76   10.40
 -10   8  -4   11.08   15.71
 -10   8  -4   14.99    8.27
  -8 -10   4   25.93   10.16
 -10   8   4   34.15   14.61
  -8 -10  -4   32.50   12.83
   8  10  -4   23.99    8.61
  -8 -10  -4   16.86   13.25
  -8 -10   4   24.10    8.32
  10  -8  -4   13.75    9.80
   8  10   4   24.96   12.57
   8  10   4   22.42   14.23
  -8 -10   4   40.57    7.67
   8  10  -4   37.17   10.22
  10  -8  -4   46.79   13.53
  -8 -10  -4   32.61   11.39
 -10   8   4   27.47    8.75
  10  -8  -4   43.27   13.89
   8  10   6   38.71   19.51
  10  -8   6    0.69   15.07
  -8 -10   6   27.08   11.92
   8  10  -6  -29.38   13.93
  -8 -10   6   24.42   14.12
   8  10   6   -2.02   14.37
 -10   8   6   29.85   18.13
 -10   8   6   16.31   18.35
  -8 -10  -6  -14.06   13.93
 -10   8  -6    8.55   18.37
  -8 -10  -6    3.01   16.15
 -10   8   6    4.60   14.10
  -8 -10  -6   40.43   18.29
  10  -8   6   18.75   18.22
 -10   8  -6   -2.54   18.32
  10  -8  -6    7.72   17.07
   8  10   8   -8.03   17.32
  10  -7  -1   37.59   12.86
  -7 -10   1   34.07    9.31
  10  -7   1   20.05   14.71
  -7 -10  -1   34.79   10.00
   7  10   1   32.54   10.35
  10  -7   1   36.09   11.84
   7  10  -1   16.45   10.47
  -7 -10   1   18.33   11.04
 -10   7   1   37.59   12.09
 -10   7   1   43.75   11.80
 -10   7  -1   42.51   11.19
   7  10   1   37.32   12.41
  -7 -10  -1   39.23   11.86
  -7 -10   1   45.01    7.30
  10  -7   1   33.09   11.96
  -7 -10  -1   15.17   10.48
   7  10   1   30.83    9.77
 -10   7  -1   38.90   14.82
  10  -7  -3   79.58   10.96
  10  -7   3   92.45   13.22
  -7 -10  -3   69.40   12.11
  -7 -10   3   91.50    8.81
  10  -7   3   96.80   14.99
  -7 -10  -3   75.03   13.70
  -7 -10  -3   78.54   13.21
 -10   7  -3   80.66   10.35
  -7 -10   3   95.00   10.01
   7  10   3   84.29   14.04
 -10   7  -3   91.72   15.14
  -7 -10   3   85.36    7.40
   7  10   3   82.62   12.70
 -10   7  -3  106.79   16.74
 -10   7   3   66.53   14.38
  10  -7  -3   87.64   13.71
 -10   7   3   74.29    9.82
   7  10  -3   72.75    9.94
   7  10  -3   71.11   10.15
  10  -7  -3  107.26   14.00
  -7 -10   3   86.04   11.13
 -10   7  -5   40.91   18.19
  10  -7   5   36.27   14.12
  -7 -10  -5   43.30   14.34
  -7 -10   5   68.34   13.14
  -7 -10  -5   55.98   13.50
 -10   7  -5   51.85    8.78
 -10   7   5   68.91   16.49
   7  10   5   49.00   16.45
   7  10   5   71.42   14.33
 -10   7   5   38.87   16.59
  10  -7  -5   96.21   16.07
  -7 -10   5   72.68   11.71
   7  10  -5   40.68   12.79
  -7 -10   5   49.78    5.95
   7  10  -5   62.19   10.18
 -10   7   5   47.34   14.23
  -7 -10   5   51.34    9.84
  -7 -10  -5   69.99   16.44
  10  -7  -5   55.07    9.51
  10  -7   7  -13.43   17.32
 -10   7   7   22.85   14.60
  -7 -10   7  -24.29   16.64
  -7 -10  -7  -19.65   16.62
   7  10  -7    6.86   16.10
  -7 -10  -7  -12.02   14.92
 -10   7  -7   28.24   18.53
   7  10   7   29.71   16.14
 -10   7   7  -26.49   20.02
  10  -7  -7   23.74   17.94
 -10   7   7  -17.44   19.63
  -7 -10   7    8.47   13.77
  -6 -10   0  235.72   15.70
  -6 -10   0  272.19   17.15
 -10   6   0  272.31   19.29
  -6 -10   0  273.50   17.43
   6  10   0  266.52   18.09
   6  10   0  231.89   17.08
  10  -6   0  231.01   19.21
 -10   6   0  233.08   17.80
 -10   6  -2  471.50   26.65
  -6 -10   2  488.39   26.61
  10  -6   2  485.53   28.02
  -6 -10  -2  461.81   27.73
  -6 -10  -2  438.10   27.23
  -6 -10   2  500.51   25.01
  10  -6  -2  469.13   27.22
   6  10   2  440.45   27.25
   6  10  -2  487.84   26.26
 -10   6   2  473.59   25.94
  10  -6  -2  466.73   26.66
   6  10  -2  445.76   25.67
  10  -6   2  481.69   27.32
  10  -6  -2  477.76   27.89
  -6 -10   2  460.23   25.26
 -10   6  -2  455.75   27.15
 -10   6  -2  508.84   28.13
 -10   6  -4   59.68   16.38
 -10   6   4   41.28   15.15
  10  -6  -4   24.21    8.05
  -6 -10   4   40.80   11.56
  10  -6  -4   32.17   13.03
 -10   6   4   42.52   14.12
  -6 -10   4   37.11    5.61
  -6 -10   4   46.22    7.96
  -6 -10  -4   47.88   13.96
  -6 -10   4   28.21   10.98
  10  -6  -4   49.36   13.61
  -6 -10  -4   42.31   11.14
  10  -6   4   24.68   12.59
   6  10  -4   30.19   11.36
 -10   6  -4   38.95    8.85
  -6 -10  -4   12.57   12.74
 -10   6   4   27.70    7.26
   6  10   4   38.39   12.19
   6  10   4   51.51   14.68
  10  -6   4   55.06   14.55
   6  10  -4   28.36    9.28
   6  10   6   78.06   15.23
 -10   6  -6   50.79   18.68
 -10   6  -6   51.60    9.26
  -6 -10   6  104.89   13.38
  -6 -10  -6   69.37   16.69
   6  10  -6   96.18   15.63
  -6 -10  -6   88.73   14.98
  10  -6   6   80.05   16.77
   6  10   6   89.07   20.52
  10  -6  -6   65.83   17.57
 -10   6   6   95.07   19.14
  -6 -10  -6   88.01   17.96
  -6 -10   6   84.38   15.79
 -10   6   6   40.67   14.80
   6  10  -6   56.77   11.22
 -10   6   6   78.15   19.57
   6  10   8   -0.78   16.69
   6  10  -8   26.04   18.67
  -6 -10  -8   39.70   15.69
  -6 -10   8    4.27   19.21
  -6 -10  -8    4.10   16.26
  -5 -10  -1   95.54   11.56
 -10   5   1   80.53   12.22
  -5 -10  -1   72.47   11.50
  10  -5   1   69.12   13.02
 -10   5  -1   97.53   15.91
  10  -5   1   74.58   16.00
   5  10  -1   81.19   10.14
   5  10   1   73.11   11.56
   5  10   1   68.35   11.51
   5  10   1   79.17   12.72
   5  10  -1   81.28   12.21
  -5 -10   1   89.52   11.64
  10  -5   1   70.41   13.26
  -5 -10   1   83.75    9.58
 -10   5  -1   70.50   12.29
  10  -5  -1   64.58   12.60
  -5 -10   3   13.05   10.97
  10  -5  -3    4.30   12.73
   5  10   3    3.42   13.11
  10  -5  -3   -2.85    8.09
  -5 -10  -3   13.24   12.37
 -10   5  -3   10.29   13.84
 -10   5  -3   20.54   14.49
   5  10   3    1.79   11.18
  10  -5   3   -9.56   11.83
  10  -5   3    1.02   12.88
  -5 -10   3    4.84    9.18
  10  -5  -3   19.07   11.91
 -10   5   3   -1.50   12.32
  -5 -10   3   10.84    5.72
 -10   5   3    6.42    6.77
  -5 -10  -3  -10.78   10.93
  -5 -10  -3   25.16   10.45
   5  10  -3   -8.07    9.24
 -10   5  -3   13.13    9.24
  -5 -10   3    8.98    6.09
   5  10  -3    5.80    9.25
  -5 -10   5  122.13   11.29
  10  -5   5   57.38   17.65
  -5 -10  -5  100.28   16.76
  10  -5  -5   95.06   15.62
  10  -5   5   77.81   15.66
   5  10  -5   96.55   14.65
 -10   5   5   92.28   17.37
  -5 -10  -5   99.71   15.31
 -10   5  -5   83.54   10.05
   5  10   5  111.32   14.82
  10  -5  -5   85.75    7.59
  -5 -10  -5  132.64   14.71
 -10   5   5  132.09   17.21
   5  10   5  135.38   17.76
 -10   5   5  106.27   14.29
 -10   5  -5   79.25   18.22
  -5 -10   5   92.09   13.34
   5  10  -5  102.89   12.24
  -5 -10   5  110.13   14.72
  10  -5  -7    5.56   16.76
  -5 -10  -7   13.36   14.70
  -5 -10   7    2.97   17.12
   5  10  -7   18.19   17.21
 -10   5   7   35.23   19.67
   5  10   7   24.47   15.40
 -10   5   7   45.26   19.44
 -10   5   7   19.22   14.00
  -5 -10  -7    8.73   15.07
  -5 -10   7   33.03   14.20
 -10   5  -7   -4.36   19.04
  10  -5   7   28.09   17.44
  -4 -10   0  292.33   17.97
   4  10   0  285.88   18.69
 -10   4   0  259.88   19.32
  10  -4   0  268.43   19.86
   4  10   0  248.81   17.15
  -4 -10   0  269.05   16.95
  -4 -10   0  248.20   16.70
 -10   4   2  506.91   27.43
 -10   4  -2  526.32   29.96
  -4 -10   2  533.25   28.11
  -4 -10  -2  511.99   29.66
  10  -4  -2  535.27   30.08
 -10   4  -2  504.71   28.62
 -10   4  -2  511.38   29.35
  10  -4   2  505.69   29.96
  10  -4  -2  519.35   28.01
  10  -4  -2  515.11   28.74
  -4 -10  -2  480.67   29.53
 -10   4   2  515.69   30.02
   4  10  -2  552.43   28.79
  -4 -10   2  522.47   26.81
   4  10   2  555.75   29.87
   4  10  -2  503.03   27.54
   4  10   2  564.99   30.13
  10  -4   2  545.52   29.68
  -4 -10   2  498.38   29.24
  -4 -10  -4  206.40   16.69
 -10   4   4  239.99   18.25
  -4 -10   4  208.62   17.08
 -10   4   4  227.11   18.82
   4  10  -4  195.48   14.89
  10  -4  -4  254.57   17.44
  10  -4   4  240.37   19.57
  10  -4  -4  240.13   17.36
   4  10   4  237.96   19.38
   4  10  -4  206.68   16.63
 -10   4  -4  156.70   18.66
  -4 -10   4  210.42   12.92
  10  -4  -4  152.37   11.18
  -4 -10  -4  183.44   18.21
  -4 -10  -4  179.90   16.79
  10  -4   4  244.64   17.55
 -10   4  -4  239.82   14.54
   4  10   4  212.80   16.78
  -4 -10   4  187.26   15.98
 -10   4  -4  198.26   18.07
  -4 -10  -6   -1.26   13.75
   4  10   6  -17.93   18.44
   4  10   6   19.22   13.81
  10  -4   6   28.90   16.21
   4  10  -6    0.63   14.67
  -4 -10   6   27.94   12.19
  10  -4  -6    7.36   15.58
  -4 -10  -6   25.72   17.92
 -10   4  -6   33.62   18.37
 -10   4   6    9.84   16.64
 -10   4   6   -3.61   17.07
  -4 -10  -6    8.34   13.96
 -10   4   6    3.91   13.07
  -4 -10   6   16.47   15.02
 -10   4  -6    9.79    8.61
   4  10  -6   -1.98   11.13
  10  -4   6   -1.54   10.75
 -10   4  -8  -20.26   19.75
   4  10   8   17.35   16.44
  -4 -10   8   -8.82   19.54
   4  10  -8   22.35   18.91
 -10   3  -1  267.14   18.91
  10  -3  -1  308.78   19.70
 -10   3   1  279.57   19.13
  10  -3  -1  296.58   18.57
 -10   3   1  300.82   18.43
   3  10  -1  268.28   17.02
   3  10   1  295.95   18.67
   3  10  -1  279.63   18.86
  -3 -10  -1  276.28   18.44
  10  -3   1  271.01   19.10
 -10   3  -1  246.79   20.60
  -3 -10  -1  294.68   18.79
  -3 -10   1  316.87   16.89
  -3 -10   1  304.29   19.40
 -10   3  -1  278.68   18.82
 -10   3  -3   -1.93    9.34
  10  -3  -3    5.77    4.94
  10  -3   3    8.94   11.75
  -3 -10  -3    1.37   11.48
  10  -3   3    5.79   12.77
   3  10   3   16.77   10.76
 -10   3  -3   -4.40   12.75
   3  10   3    6.82   13.15
   3  10  -3    9.00   10.46
  10  -3  -3    4.88   11.42
 -10   3   3   14.80   12.40
  -3 -10  -3   -5.68   12.43
   3  10   3   11.29   11.42
  -3 -10  -3   -9.76    9.95
  -3 -10   3  -17.16   10.28
 -10   3   3    1.19    4.06
  -3 -10   3   -2.34   11.55
  -3 -10   3   -1.21    3.16
   3  10  -3    3.45   10.53
  10  -3  -3  -14.17   11.86
 -10   3  -3   10.92   15.54
  10  -3   5  132.86   16.34
  10  -3   5  116.85   12.96
 -10   3   5  148.94   17.30
  -3 -10   5  145.78   15.93
  -3 -10  -5  149.07   17.14
 -10   3   5  162.08   17.89
   3  10   5  129.10   18.15
 -10   3  -5  124.99   11.65
   3  10   5  126.11   15.23
  -3 -10  -5  133.92   15.42
  -3 -10  -5  127.55   14.71
 -10   3  -5  119.68   19.43
 -10   3  -5  134.58   18.32
  -3 -10   5   92.51   15.35
   3  10  -5  116.11   13.52
  10  -3  -5  151.30   16.15
   3  10  -5   93.45   15.74
  10  -3   5  114.78   17.67
 -10   3   7    0.57   13.27
   3  10   7   10.83   14.78
 -10   3  -7   11.34   18.56
  10  -3   7    4.07   17.05
  -3 -10   7   21.54   16.96
 -10   3   7   27.07   18.22
 -10   3   7   32.35   18.66
  -3 -10   7   32.52   14.47
   3  10  -7    0.77   17.20
  10  -3  -7   25.40   16.49
  -3 -10  -7  -16.99   14.89
 -10   2   0  252.66   17.55
  10  -2   0  245.68   18.31
  10  -2   0  234.23   16.31
   2  10   0  305.77   18.71
  -2 -10   0  268.21   17.86
   2  10   0  272.67   14.77
  -2 -10   0  242.27   16.54
   2  10   0  270.96   16.51
 -10   2   0  231.73   18.48
 -10   2   2  449.44   24.95
   2  10   2  490.05   27.84
   2  10   2  489.66   28.07
  -2 -10  -2  513.35   27.99
  -2 -10   2  501.77   27.75
   2  10  -2  489.27   24.85
 -10   2   2  470.61   28.00
 -10   2  -2  493.64   27.25
  10  -2  -2  477.74   26.51
  -2 -10   2  436.54   23.95
  -2 -10  -2  510.80   28.16
   2  10  -2  503.09   26.99
  -2 -10   2  499.19   24.65
  -2 -10   2  482.74   26.86
  10  -2   2  512.10   27.84
 -10   2  -2  485.76   27.90
  10  -2  -2  521.77   27.80
 -10   2  -4   12.83   14.00
   2  10  -4    3.18   12.45
  10  -2  -4   -5.20   11.85
  -2 -10   4    6.68   12.15
  10  -2   4   -5.23   13.52
  10  -2   4   -5.77   11.96
 -10   2   4    7.50   13.26
  -2 -10   4   11.66   11.32
 -10   2  -4    3.42   15.29
 -10   2  -4   -3.40    9.26
  -2 -10  -4   -9.68   13.80
   2  10  -4   -3.56   10.75
  10  -2   4    7.23    9.73
   2  10   4    4.20   13.80
 -10   2   4    0.45   12.20
  10  -2  -4   -2.95   11.31
  -2 -10  -4   -2.46   11.62
  -2 -10  -4    8.33   11.30
   2  10   4   -6.30   11.73
  -2 -10  -6  -12.63   14.16
 -10   2  -6   19.75   17.60
 -10   2   6    2.04   12.20
   2  10   6   20.05   13.27
   2  10  -6    4.01   15.31
 -10   2   6   -4.79   16.17
  10  -2   6    4.98   17.07
  10  -2  -6    4.34   14.38
  10  -2   6    2.16   10.89
  10  -2   6   -5.00   15.35
 -10   2  -6   16.69    9.82
 -10   2   6   -1.45   16.57
  -2 -10  -6   19.17   14.10
  -2 -10   6   -1.98   15.27
   2  10  -6   22.31   12.70
 -10   2  -8    0.93   19.33
 -10   2   8   15.08   20.81
  10  -2  -8   24.23   18.51
   2  10   8    9.57   15.78
  -1 -10   1   29.82    7.44
   1  10   1   36.15    9.23
   1  10   1   26.45    9.93
  10  -1   1   23.04    9.71
   1  10  -1   26.07    7.25
 -10   1   1   25.03    9.87
  10  -1   1   44.27   11.55
  -1 -10   1   40.32   11.82
  -1 -10  -1   38.38    9.92
   1  10  -1   37.31   11.27
 -10   1  -1   39.76   10.85
  -1 -10   1   24.70    4.57
   1  10  -1   20.14    4.35
 -10   1   1   31.55   11.30
  -1 -10  -1   29.24   11.54
 -10   1  -1   30.17   13.67
  10  -1  -1   15.10   11.09
 -10   1  -1    8.73   10.15
  -1 -10  -1   16.49   11.42
   1  10   3   88.15   12.62
  -1 -10   3   88.66   14.11
   1  10  -3   59.48   12.30
   1  10  -3   43.74   11.78
  10  -1   3   62.78   13.18
 -10   1  -3   63.35   12.89
  -1 -10  -3   59.31   14.17
  10  -1  -3   57.39   11.06
   1  10   3   87.43   12.41
   1  10   3   78.16   14.12
  10  -1  -3   58.58   11.93
  -1 -10  -3   60.02   12.05
 -10   1   3   73.98   12.71
 -10   1   3   71.25   11.47
 -10   1  -3   58.23   15.85
  -1 -10   3   89.35   12.28
  -1 -10  -3   73.28   11.85
  -1 -10   3   61.27    7.76
  10  -1   3   79.65   11.93
 -10   1  -3   87.35   10.96
 -10   1  -5   61.64   10.23
  -1 -10   5   49.88   13.95
  -1 -10   5   61.17   14.86
  10  -1   5   52.52   13.57
 -10   1   5   80.38   15.24
 -10   1  -5   59.18   16.60
 -10   1  -5   30.13   16.00
  10  -1   5   49.17   11.56
 -10   1   5   51.13   14.60
  10  -1  -5   78.18   13.54
   1  10  -5   41.19   13.36
  -1 -10  -5   42.71   13.13
  -1 -10  -5   58.21   12.84
  10  -1   5   56.18   16.28
   1  10   5   61.28   13.22
   1  10  -5   64.83   14.65
  -1 -10  -7   16.71   18.16
  10  -1  -7   -0.70   15.94
 -10   1  -7    4.44   18.31
  10  -1   7   -2.48   17.06
  10  -1   7   27.22   20.41
 -10   1   7  -20.30   18.61
  -1 -10   7    1.60   17.71
  -1 -10  -7    1.28   13.97
   1  10   7    8.66   14.86
   1  10  -7    4.83   18.22
 -10   1   7   -8.78   12.84
 -10   1   7   27.02   18.33
   0  10   0   82.27   10.50
   0 -10   0  108.12    8.81
  10   0   0   78.10    9.28
  10   0   0   87.67   12.23
   0  10   0   98.62    8.75
   0 -10   0   77.06   10.98
 -10   0   0   74.25   11.43
   0  10   2  418.44   25.34
  10   0   2  397.25   24.56
   0 -10   2  378.34   25.60
  10   0   2  410.18   24.65
  10   0   2  409.65   24.65
   0 -10   2  427.66   24.68
   0 -10   2  426.87   22.02
   0 -10  -2  452.13   25.15
 -10   0  -2  444.66   25.10
   0  10  -2  379.47   24.49
 -10   0   2  387.04   21.82
  10   0  -2  443.56   23.04
   0 -10  -2  438.55   25.46
   0  10   2  426.00   25.05
 -10   0  -2  411.80   24.07
   0  10  -2  420.45   21.67
  10   0  -2  452.26   24.89
 -10   0   2  413.41   24.85
   0  10   2  417.97   24.57
  10   0  -4   16.17   10.36
   0  10   4    6.82   10.99
   0 -10   4   -7.24   11.93
   0  10  -4   26.08   12.79
 -10   0   4   25.42   13.50
 -10   0  -4    2.82   13.65
   0 -10  -4   20.42   11.42
 -10   0  -4   30.34    9.55
 -10   0   4   18.41   11.70
   0 -10  -4   14.47   11.30
  10   0   4   16.47   10.18
   0 -10   4   10.70    8.56
   0  10  -4   32.07   12.80
   0 -10   4    6.87   13.62
  10   0   4   22.10   13.17
  10   0   4    9.47   11.92
   0  10   4   23.40   12.59
 -10   0  -6    3.19   17.74
 -10   0   6   30.57   15.88
 -10   0  -6   13.50   10.75
  10   0   6   31.06   15.83
   0 -10   6    7.61   15.30
   0 -10  -6   13.12   16.25
 -10   0   6   -9.26   11.77
  10   0   6   -0.83   17.87
 -10   0   6    5.51   15.84
  10   0   6   22.24   12.57
   0 -10  -6   32.64   13.46
  10   0  -6    4.07   13.38
 -10   0  -6  -13.32   18.21
   0  10   6    9.61   13.30
   0  10  -6   19.00   16.70
   0  10  -6   -1.08   14.29
  10   0  -8   22.96   17.72
   0  10   8   17.38   15.62
 -10   0   8    7.26   20.28
 -10   0  -8  -35.52   20.56
  10   1  -1   50.85   11.61
 -10  -1   1   51.32   10.53
  10   1   1   36.00   11.59
 -10  -1  -1   58.89   10.88
  10   1   1   67.46   11.44
   1 -10   1   56.95    7.83
  -1  10  -1   62.95   11.96
  -1  10  -1   51.60    7.20
  10   1   1   47.52    9.77
 -10  -1   1   58.95   11.67
  -1  10  -1   48.21    8.24
   1 -10  -1   35.02   11.86
   1 -10  -1   51.27   11.29
  -1  10   1   56.48   10.27
   1 -10  -1   59.36   11.09
   1 -10  -1   47.27    9.48
  -1  10   1   43.95   10.80
 -10  -1  -1   43.14   10.08
  -1  10   1   48.84   11.40
   1 -10   1   58.06   12.39
 -10  -1  -1   37.13   11.26
  -1  10   3   10.97   12.03
  10   1  -3   18.88   10.31
   1 -10   3   20.44    8.17
   1 -10   3    9.30   13.34
 -10  -1   3   17.09    9.32
  10   1   3    8.47   12.52
 -10  -1  -3    1.82    9.70
  -1  10  -3   -2.96   11.93
 -10  -1  -3    7.20   12.06
   1 -10   3  -19.47   11.78
 -10  -1   3   21.70   11.15
  -1  10   3    5.46   11.82
  10   1   3   19.96   11.00
  -1  10   3    3.29   11.46
  -1  10   3   10.40   12.51
  -1  10  -3   22.75   12.43
  10   1  -3    6.23    9.04
   1 -10  -3    0.41   11.16
   1 -10  -3    4.40   10.57
  -1  10  -5   17.39   14.05
   1 -10   5    4.20   13.52
  -1  10   5   28.47   12.27
  10   1   5   23.70   13.98
  10   1   5    9.02   15.08
   1 -10  -5   23.86   11.95
 -10  -1   5  -13.30   14.98
  10   1   5   18.01   11.65
   1 -10   5   20.93   10.37
 -10  -1   5   14.82   13.01
  10   1  -5   23.18   11.60
  -1  10   5   42.22   14.72
 -10  -1  -5    2.02   14.99
 -10  -1  -5   31.32    9.98
   1 -10   5   -4.33   14.61
  -1  10  -5   -3.05   14.29
   1 -10  -5   32.19   14.89
  10   1   7   26.37   20.03
 -10  -1  -7    3.69   19.99
  10   1  -7   34.84   15.81
 -10  -1   7  -19.45   12.03
   1 -10  -7  -25.54   18.62
 -10  -1   7  -20.20   18.25
  -1  10   7   12.57   20.38
  -1  10  -7  -15.72   15.15
  10   1   7   11.02   13.21
   1 -10   7   -5.90   14.32
  -1  10   7   -9.27   14.51
 -10  -1  -7   -1.82   19.23
   1 -10  -7    4.75   13.38
  -1  10  -7   38.70   19.57
 -10  -1  -7  -28.78   11.60
   1 -10   7  -10.79   18.34
 -10  -1   7   12.97   17.68
  10   2   0  626.53   33.28
   2 -10   0  638.81   32.41
 -10  -2   0  613.68   33.04
  10   2   0  590.43   31.65
  -2  10   0  649.28   32.59
  -2  10   0  641.92   32.96
   2 -10   2  483.77   25.98
   2 -10   2  442.72   23.47
 -10  -2  -2  434.53   25.66
 -10  -2  -2  477.47   25.50
  -2  10  -2  467.47   23.49
 -10  -2   2  407.47   24.87
   2 -10   2  429.64   26.93
  10   2   2  415.67   25.60
 -10  -2   2  414.77   22.28
  10   2  -2  419.70   25.04
   2 -10  -2  455.04   25.60
 -10  -2   2  392.53   22.51
  -2  10  -2  474.98   26.38
  10   2   2  439.46   25.34
  -2  10   2  465.99   25.77
  10   2  -2  431.18   23.10
  10   2   2  438.59   25.78
  -2  10  -2  454.77   22.78
  -2  10   2  480.04   25.68
  -2  10  -4   26.36   13.45
   2 -10   4   41.57   15.12
 -10  -2  -4   39.57   10.54
  -2  10   4   67.26   11.54
  -2  10  -4   27.38   13.47
  -2  10   4   29.40   13.47
  10   2  -4   48.01   10.42
  10   2   4   28.73   13.71
  -2  10   4   55.84   12.44
 -10  -2   4   41.32   11.10
   2 -10  -4   44.06   11.65
   2 -10   4   23.95   12.91
   2 -10   4   41.52    9.87
 -10  -2  -4   44.32   13.85
  10   2   4   20.19   11.23
   2 -10  -4   43.85   12.76
 -10  -2   4   48.35   12.67
  -2  10  -6   -6.13   15.47
  -2  10   6   12.56   18.11
  -2  10   6  -16.37   13.70
  -2  10  -6  -22.16   17.13
   2 -10   6    1.51   12.14
   2 -10   6   -5.08   16.66
 -10  -2   6    6.24   14.83
 -10  -2   6  -11.77   15.86
  10   2   6   18.28   18.16
   2 -10  -6  -13.14   16.70
 -10  -2   6   12.49   11.10
  10   2   6    2.18   12.97
   2 -10  -6    1.57   12.67
 -10  -2  -6   10.48   10.85
 -10  -2  -6   29.31   17.44
  10   2  -6   15.48   13.48
 -10  -2  -8    9.96   20.22
 -10  -2   8    2.60   18.69
   2 -10   8   -6.38   15.73
  10   2  -8    9.86   16.72
  -2  10   8   30.96   16.02
 -10  -3  -1 1341.55   66.56
 -10  -3  -1 1247.83   65.66
 -10  -3   1 1252.71   65.79
 -10  -3  -1 1300.16   66.22
  -3  10  -1 1294.35   65.47
 -10  -3   1 1334.76   66.70
   3 -10   1 1293.86   65.54
  10   3   1 1348.96   66.36
  -3  10   1 1287.32   66.58
   3 -10  -1 1311.02   66.68
  -3  10   1 1317.61   66.27
  -3  10  -1 1378.69   67.04
   3 -10  -1 1354.22   66.25
  10   3  -1 1276.01   66.06
  -3  10  -1 1372.99   65.48
  -3  10   1 1363.51   66.47
 -10  -3   1 1336.11   65.37
  10   3   1 1299.29   65.62
  -3  10  -3   16.95   13.76
  -3  10   3  -28.19   11.13
   3 -10   3   13.90    8.96
  -3  10  -3   12.90   12.24
   3 -10   3    8.70   14.43
   3 -10   3   20.31   12.39
 -10  -3  -3   14.41   10.27
 -10  -3  -3    8.34   11.83
   3 -10  -3   20.10   10.82
 -10  -3   3   19.44    8.42
  10   3  -3   31.21    9.78
  -3  10   3   17.05   12.35
  10   3   3   13.28   12.45
  10   3  -3    4.17    8.19
  10   3   3   19.82   11.38
  10   3   3   19.86   11.94
 -10  -3   3   18.07   10.71
  -3  10   3   12.39   10.39
  -3  10  -5    3.06   15.90
   3 -10   5   37.49   16.00
 -10  -3   5   -2.16   14.09
   3 -10   5  -11.46   15.21
 -10  -3  -5   -2.01   14.59
  10   3   5    4.18   15.68
  -3  10   5  -11.30   12.41
  -3  10   5   -8.62   16.52
 -10  -3   5   16.05   12.71
   3 -10   5    9.52   10.78
   3 -10  -5   -6.75   14.58
  10   3  -5   25.05   11.85
   3 -10  -5    6.43   11.06
  -3  10  -5   27.75   15.03
 -10  -3  -5    6.12   10.68
  -3  10  -7   11.38   19.20
  -3  10  -7   15.57   16.58
 -10  -3  -7    1.84   19.44
 -10  -3  -7   -5.39   12.27
  10   3   7  -22.67   20.35
   3 -10  -7   22.93   18.46
   3 -10   7    9.30   14.49
  10   3   7    0.62   14.22
   3 -10   7   -5.16   18.76
 -10  -3   7   43.56   17.38
 -10  -3   7   34.01   17.04
   3 -10  -7   -2.16   12.34
 -10  -3  -7   -5.65   19.45
  -3  10   7   33.84   21.02
  -3  10   7   29.88   14.68
  -3  10   7   -0.91   18.60
  10   3  -7   37.99   15.56
  10   4   0   35.87    5.67
 -10  -4   0   39.19    9.37
  10   4   0   42.32   11.53
 -10  -4   0   43.93   11.43
  10   4   0   28.17    9.83
   4 -10   0   51.74   12.87
  -4  10   0   43.49   10.06
  -4  10   0   48.54    9.79
  -4  10   0   32.94   12.33
 -10  -4   0   23.46    5.75
   4 -10   0   28.67   10.28
  10   4   2  499.16   28.20
   4 -10   2  490.17   29.69
   4 -10  -2  485.08   27.91
 -10  -4  -2  503.84   27.64
  10   4   2  492.36   27.62
  10   4   2  484.40   27.49
  -4  10   2  532.46   28.02
  10   4  -2  435.19   26.74
 -10  -4   2  490.14   27.60
 -10  -4   2  503.61   25.16
   4 -10   2  472.38   26.77
  -4  10  -2  484.27   29.79
  -4  10  -2  478.59   26.58
   4 -10  -2  541.06   28.04
  -4  10   2  471.62   28.30
  10   4  -2  495.61   24.74
   4 -10   2  503.94   28.77
 -10  -4  -2  517.52   27.76
  -4  10  -2  455.24   25.26
 -10  -4   2  456.39   26.82
  -4  10   4   10.30   10.58
 -10  -4   4    6.30   11.33
 -10  -4  -4   11.66   13.31
  -4  10  -4   -6.50   15.34
   4 -10   4  -35.18   13.95
 -10  -4  -4   -7.73   10.62
   4 -10   4    5.26   10.27
  -4  10   4   -7.58   13.58
  10   4  -4    8.46    9.46
   4 -10  -4    1.76   13.51
  -4  10  -4  -15.24   13.89
   4 -10  -4    3.64   10.42
   4 -10   4  -22.53   15.88
 -10  -4   4    8.08   10.32
  -4  10   4    7.36   14.37
  -4  10   4   -0.52   12.07
  10   4   4   -6.28   13.23
  -4  10  -6    7.48   17.04
   4 -10   6    1.63   12.69
  -4  10  -6  -21.64   17.96
  -4  10   6   -9.32   13.49
 -10  -4  -6    6.33   17.01
  10   4  -6   -6.41   12.99
 -10  -4   6   28.33   15.13
 -10  -4   6   -8.42   15.24
  -4  10   6   -0.84   18.73
 -10  -4  -6  -13.16   11.91
   4 -10   6   -8.37   16.50
  10   4   6   25.13   18.23
   4 -10  -6  -10.94   11.68
   4 -10  -6    1.56   16.46
 -10  -4   8    8.25   19.03
 -10  -4  -8   27.72   18.10
  -4  10   8   -7.23   15.46
   4 -10   8   -2.22   16.21
 -10  -4   8   22.96   19.53
  10   4  -8    2.22   16.90
  -5  10   1  316.80   21.22
   5 -10  -1  374.04   20.80
 -10  -5   1  345.63   19.09
  -5  10   1  337.98   21.25
  10   5   1  340.18   20.37
  10   5  -1  356.50   21.22
  -5  10  -1  304.17   19.56
   5 -10  -1  360.38   21.63
   5 -10   1  347.42   20.31
  10   5   1  323.23   19.37
 -10  -5   1  347.31   21.13
 -10  -5   1  334.57   18.93
  10   5  -1  315.33   19.73
 -10  -5  -1  321.66   19.30
  -5  10   1  287.27   21.25
   5 -10   3    1.01    9.72
  -5  10   3   -5.51   12.01
 -10  -5  -3    1.68    9.93
 -10  -5   3    3.91    7.53
   5 -10   3   -1.00   13.04
  10   5  -3   -6.72    7.40
  10   5  -3    8.17    8.61
 -10  -5  -3    5.74   11.31
  -5  10  -3    9.09    5.73
  10   5   3    9.10   12.17
  10   5   3    5.85   11.52
  -5  10  -3    7.96   12.24
   5 -10  -3  -12.08   13.33
   5 -10  -3    5.54   10.13
   5 -10   3    6.59   14.12
 -10  -5   3   -4.04    8.35
 -10  -5   3    0.31    9.05
  -5  10   3    5.19    9.98
  -5  10  -3   22.24   15.00
  -5  10   3    4.77   11.89
 -10  -5   3    0.11    3.85
  -5  10  -5  -22.50   15.25
  10   5   5    4.89   13.15
   5 -10   5  -11.41   15.42
 -10  -5  -5   12.15   15.80
  10   5  -5  -11.87   11.58
 -10  -5   5   -8.46   11.02
   5 -10  -5   -6.19   14.96
  -5  10  -5   29.11   16.31
  -5  10   5  -15.97   16.29
 -10  -5  -5   -3.83   11.44
  -5  10   5    8.16   12.93
   5 -10   5   10.01   12.18
   5 -10  -5   -8.38   10.77
 -10  -5   5  -10.26   12.40
  10   5   5   -2.12   15.20
 -10  -5   5   -6.00   12.94
  -5  10   7   -9.51   14.84
  10   5   7   34.72   20.68
  -5  10  -7   23.83   17.14
 -10  -5   7    7.87   17.09
 -10  -5   7   11.86   17.10
   5 -10   7   26.26   15.50
   5 -10   7    7.15   18.41
  -5  10   7  -10.16   18.63
  -5  10  -7   10.90   19.41
  -5  10   7   27.17   21.02
 -10  -5  -7    5.77   17.10
   5 -10  -7   18.72   18.63
 -10  -5  -7   33.08   12.92
  10   5  -7   -1.27   15.31
   6 -10   0    1.27   14.04
 -10  -6   0   -2.97    4.58
 -10  -6   0    2.28   10.53
 -10  -6   0   -9.72   10.47
  10   6   0    2.12    4.53
  -6  10   0   -5.40   10.99
   6 -10   0   -8.52   10.89
 -10  -6   0    0.94    8.24
  10   6   0    2.74   12.55
  10   6   0    8.79    8.97
  -6  10   0   -5.97   13.93
   6 -10   2  285.80   18.06
  -6  10  -2  315.03   20.82
  -6  10  -2  313.66   17.76
 -10  -6  -2  305.80   18.47
  10   6   2  319.04   18.64
  -6  10   2  332.01   20.20
 -10  -6  -2  331.48   19.36
   6 -10   2  278.42   19.65
 -10  -6   2  324.91   17.86
   6 -10  -2  328.62   19.34
 -10  -6   2  314.45   16.53
   6 -10  -2  322.19   19.45
  -6  10   2  294.94   18.51
   6 -10   2  290.02   21.61
   6 -10  -2  357.10   20.11
 -10  -6   2  308.24   15.82
  10   6   2  324.54   18.96
  10   6  -2  314.40   16.96
  -6  10   4   16.05   10.40
  -6  10  -4   18.74    3.95
  -6  10  -4   12.36   15.28
   6 -10   4    5.99   11.39
   6 -10  -4   14.37   13.14
  10   6  -4    1.54    9.26
   6 -10   4   24.45   13.17
  -6  10   4   36.80   14.81
  10   6   4   20.65   14.18
  -6  10   4   33.15   12.45
 -10  -6  -4   43.28   11.40
 -10  -6   4   12.24    9.84
   6 -10   4   27.42   16.70
  -6  10   4   16.44   13.02
   6 -10  -4   16.71   10.26
  -6  10  -4   11.45   14.65
 -10  -6  -4    4.49   13.56
  10   6   4   18.57   12.43
 -10  -6   4   12.33    9.97
 -10  -6   4   19.75   10.27
  -6  10  -6    8.87   17.83
  -6  10  -6    1.49   17.82
 -10  -6  -6   -3.03   15.51
  -6  10   6  -19.51   18.95
  10   6   6  -22.18   18.47
   6 -10   6    3.19   17.36
  -6  10   6    6.50   17.90
 -10  -6   6    0.38   10.63
 -10  -6   6   13.94   14.42
 -10  -6  -6    0.80   17.31
  -6  10   6   -9.02   14.12
 -10  -6   6    6.97   14.87
   6 -10  -6  -11.85   17.73
   6 -10  -6   23.02   11.14
 -10  -6  -6    4.44   11.97
   6 -10   6    5.84   13.93
  10   6   6    3.71   14.44
  10   6  -6    1.05   13.81
   6 -10   8    7.77   17.02
  -6  10   8  -25.72   16.05
   7 -10  -1   68.65   13.67
 -10  -7   1   71.90    8.38
   7 -10   1   64.32   15.20
  10   7   1   65.17   10.27
  -7  10   1   59.63   13.12
 -10  -7  -1   80.67   12.43
  -7  10   1   86.68   12.45
  10   7   1   70.25    9.60
  10   7  -1   82.42   12.40
 -10  -7   1   78.97   10.31
  10   7  -1   56.23    9.09
   7 -10  -1   92.75   12.62
   7 -10   1   98.68   12.52
 -10  -7  -1   73.60    9.49
  -7  10  -1   79.11   11.01
 -10  -7   1   64.38   11.07
   7 -10  -3   34.24   12.87
  -7  10   3   32.75   12.15
 -10  -7   3   34.64    7.65
  10   7  -3   49.31    6.86
  -7  10   3   14.62   13.28
  -7  10  -3   45.46    7.79
 -10  -7  -3   45.34   11.43
  -7  10  -3   43.47   15.48
  10   7  -3   31.72    7.30
 -10  -7   3   38.63    6.31
  10   7   3   51.93   13.04
   7 -10  -3   71.40   14.34
   7 -10   3   48.65   13.52
 -10  -7  -3   49.38   12.53
 -10  -7  -3   52.12   13.21
 -10  -7   3   49.43    9.25
  -7  10   3   49.83   10.68
   7 -10  -3   46.63   11.05
 -10  -7   3   32.16    7.86
   7 -10   3   46.66   16.05
  10   7   3   49.32   11.89
  -7  10  -3   40.73   13.93
   7 -10   3   41.31   11.70
  -7  10  -5   -5.86   16.70
   7 -10   5    2.62   12.91
   7 -10  -5   14.33   10.54
  10   7   5   23.99   16.26
   7 -10   5   -1.42   15.62
 -10  -7   5   10.89   12.23
  -7  10   5   22.56   13.21
 -10  -7   5    3.59   12.06
 -10  -7  -5   22.39   14.76
 -10  -7   5   -0.72   10.00
  -7  10   5   11.80   16.66
  10   7  -5  -10.79   11.24
 -10  -7  -5    4.20   11.66
  -7  10  -5   14.99   16.55
   7 -10  -5   23.13   15.25
 -10  -7  -5  -19.16   15.51
  10   7   5   -4.68   13.58
 -10  -7  -7   26.37   13.56
  10   7   7  -18.85   15.74
 -10  -7  -7   11.77   17.24
  10   7  -7    0.63   15.22
  -7  10  -7   30.54   17.84
 -10  -7   7   10.39   16.82
  -7  10   7    2.82   14.85
   7 -10  -7  -19.82   18.78
 -10  -7   7    3.25   15.50
   7 -10   7    9.08   15.65
  -7  10   7   25.41   21.48
   8 -10   0   -9.56   13.92
 -10  -8   0    0.38   11.05
 -10  -8   0    3.46    5.33
   8 -10   0   -7.07   12.19
  10   8   0    8.75   11.32
  -8  10   0   10.43   11.13
  -8  10   0    2.62   13.79
 -10  -8   0    8.37   10.38
  10   8   0   -2.30    8.39
 -10  -8   2   19.77    3.24
  -8  10  -2   27.13   14.69
  -8  10  -2   37.89   10.92
   8 -10  -2   24.23   12.23
   8 -10  -2   69.62   13.86
  10   8  -2   25.83    7.41
 -10  -8   2   23.83    6.27
  10   8  -2   31.51   10.65
  10   8   2   26.34   10.15
 -10  -8  -2   20.18   10.89
 -10  -8  -2   18.01   10.71
  10   8   2   39.05   10.75
 -10  -8   2   33.13    8.72
  10   8  -2   30.91    8.45
  -8  10   2   42.60   13.47
   8 -10  -2   20.09   11.73
 -10  -8   2   41.99    7.97
  -8  10   2   35.99   10.93
   8 -10   2   27.42   10.81
  10   8   2   28.22   11.84
   8 -10  -4  -20.93   14.24
 -10  -8  -4   12.11   10.99
   8 -10   4   11.09   11.88
  -8  10  -4   -2.84   16.39
 -10  -8   4    4.63    6.50
 -10  -8   4   -4.56    8.59
  10   8  -4  -16.71    9.20
 -10  -8  -4    8.62   13.72
 -10  -8  -4  -25.79   13.29
 -10  -8   4    2.58    9.65
  10   8   4    7.76   12.38
  -8  10   4   -8.93   10.11
   8 -10   4  -10.68   15.43
 -10  -8   4   15.21    9.59
  10   8   4   10.38   14.14
  -8  10   4   -5.74   12.30
  -8  10  -4  -28.79   15.64
   8 -10   4    1.27   13.50
   8 -10  -4   -1.53   10.73
  10   8  -4    4.78    5.43
   8 -10   6   45.04   18.77
  -8  10  -6   10.54   18.63
  -8  10   6   30.05   20.08
   8 -10   6   32.74   14.91
 -10  -8   6    9.58   14.67
 -10  -8  -6   14.05   16.64
  10   8   6   54.84   19.60
  -8  10   6   27.00   17.99
   8 -10  -6   14.49   16.98
 -10  -8   6   29.32   10.00
 -10  -8   6   26.64   13.58
  10   8   6   49.11   15.36
  -8  10  -6   19.34   18.44
 -10  -8  -6   25.44   13.47
  -8  10   6   22.19   15.39
 -10  -8  -6   34.88   17.94
   8 -10  -6   35.32   11.14
  10   8  -6   18.80   13.87
  -8  10  -8    8.60   19.60
  -8  10   8   12.89   15.77
   9 -10  -1  171.04   17.50
 -10  -9  -1  179.95   13.65
  10   9   1  186.85   13.65
  10   9  -1  203.41   15.47
  10   9  -1  178.69   12.50
   9 -10   1  181.45   15.54
  10   9   1  193.99   16.12
 -10  -9   1  209.42   11.84
  10   9   1  207.68   14.22
  -9  10  -1  186.54   18.38
  10   9  -1  194.03   15.16
 -10  -9  -1  195.56   16.23
  -9  10   1  182.26   16.65
 -10  -9   1  199.15   14.73
 -10  -9   1  199.71   14.89
   9 -10   1  152.86   18.32
   9 -10  -1  193.62   16.83
  -9  10   1  223.90   16.43
   9 -10   1  210.99   17.01
  -9  10  -1  169.44   15.31
   9 -10  -3    9.50   10.48
  10   9   3    6.30   12.37
  -9  10  -3   -6.63   15.63
 -10  -9  -3   10.05   12.78
  10   9   3    1.99   12.34
  -9  10  -3  -14.56   10.80
  10   9  -3  -13.73    7.68
  -9  10   3    8.13   10.18
  -9  10   3   22.31   14.29
  -9  10  -3    8.06    8.65
  10   9  -3  -16.81    7.14
 -10  -9  -3  -19.74   12.48
 -10  -9  -3    1.47   11.25
 -10  -9   3    7.70    7.12
 -10  -9   3    0.27    7.54
 -10  -9   3   -6.04    6.21
   9 -10   3   -9.32   15.11
   9 -10  -3   10.82   13.25
 -10  -9   3    6.88    8.03
   9 -10   3   -3.62   11.52
   9 -10   5    8.96   16.26
 -10  -9   5   12.52    7.04
   9 -10  -5    7.17   15.43
  -9  10  -5   10.36   17.90
 -10  -9   5   -1.21   10.42
  -9  10   5   12.72   17.71
 -10  -9   5   12.70   12.39
 -10  -9  -5    1.40   15.45
 -10  -9  -5   33.84   12.83
  10   9   5   23.30   13.99
  -9  10  -5    2.36    5.68
  10   9  -5   -8.95   11.49
 -10  -9  -5   18.16   15.90
  10   9   5   23.97   17.03
   9 -10   5  -24.25   13.67
  -9  10   5   37.57   10.51
  -9  10   5   34.67   14.52
   9 -10  -5   17.62   11.44
  -9  10  -5   -0.75   16.53
  10   9  -5   10.99    5.44
  -9  10  -7  -27.97   19.44
 -10  -9  -7    0.70   14.52
   9 -10   7   13.38   16.73
  -9  10   7    9.86   21.30
 -10  -9   7   13.50   15.99
  -9  10   7   21.96   15.67
 -10  -9  -7   13.88   17.48
  10   9   7   17.96   16.18
  10  10   0  174.76   16.55
 -10 -10   0  223.57   16.31
  10 -10   0  220.79   17.27
  10  10   0  192.59   13.15
 -10 -10   0  194.35   15.45
 -10 -10   0  187.70   12.42
 -10  10   0  169.42   17.76
  10  10   0  215.08   16.77
  10 -10   0  201.42   18.21
 -10  10   0  218.61   16.97
 -10  10  -2   65.88   11.43
  10  10  -2   37.06    5.98
 -10 -10  -2   46.24   11.38
 -10 -10   2   37.16    5.21
 -10 -10   2   37.63    9.15
  10  10   2   52.82   11.00
  10  10  -2   61.68   11.44
  10 -10  -2   54.37   13.06
 -10  10   2   33.77   12.82
  10 -10  -2   50.25   13.38
  10 -10  -2   37.48   12.17
 -10 -10   2   48.05    4.36
  10  10  -2   38.43    9.67
 -10 -10   2   57.47    9.65
  10 -10   2   36.87   12.53
 -10  10   2   41.66   10.92
  10 -10   2   40.25   12.97
  10 -10   4  199.73   17.51
 -10 -10  -4  209.05   16.92
 -10  10  -4  169.31   21.17
  10  10  -4  180.04   13.67
  10 -10  -4  200.89   15.63
 -10 -10   4  180.19   14.22
 -10 -10   4  170.09   13.38
  10  10   4  192.33   19.02
 -10  10   4  171.43   17.72
 -10  10   4  177.03   14.25
 -10 -10   4  204.82   13.40
 -10 -10  -4  172.66   18.41
  10 -10  -4  203.19   18.33
  10 -10   4  135.47   21.43
 -10  10  -4  158.99   13.25
 -10 -10  -4  168.54   18.69
  10  10  -4  154.85   12.25
  10  10   4  174.87   17.12
 -10 -10   4  172.83   13.83
  10  10   6   20.69   15.78
 -10  10  -6   -0.87   19.46
  10 -10   6   12.16   18.10
 -10 -10  -6   50.52   18.73
  10 -10  -6   23.79   18.24
 -10  10   6   24.04   15.22
  10  10   6   -8.94   20.13
 -10 -10   6   19.60   11.70
 -10  10  -6   -6.97   18.94
 -10  10   6   85.02   20.60
 -10  10   6   21.98   18.98
 -10 -10  -6  -10.54   14.32
 -10 -10   6   -8.25   13.92
  10 -10   6   14.92   15.58
 -10 -10  -6   13.81   16.89
  10  10  -6   43.15   13.57
 -11  10  -1    8.64   14.55
  11 -10  -1    4.56   13.43
 -10 -11  -1    3.19   10.77
  10  11   1    9.98   12.07
  10  11   1    7.85    8.71
  11 -10   1   12.87   12.77
 -10 -11  -1    7.41   11.98
 -10 -11  -1    9.96    9.12
  11 -10  -1   -1.48   13.15
  10  11   1   15.62    9.23
 -10 -11   1    5.78   10.40
  10  11  -1   20.32   10.96
  10  11  -1    9.26   10.64
 -11  10   1   -4.92   12.92
  11 -10   1   19.73   12.25
 -10 -11   1   11.94   10.79
 -10 -11   1    3.45    3.57
  10  11  -1    2.35    5.87
 -10 -11   1   10.63    4.66
 -11  10   1    4.90   12.24
  11 -10   1   13.88   14.83
 -11  10  -1   26.71   11.96
  11 -10  -3   40.39   14.00
  11 -10  -3   27.88   12.06
 -10 -11   3   22.78    6.33
 -11  10  -3   -2.17   16.51
 -11  10  -3    6.99   11.48
  10  11   3   23.18   13.27
  10  11   3    8.47   12.69
 -11  10  -3   25.51    9.77
  10  11  -3   38.52    9.25
 -10 -11  -3   27.23   12.83
 -10 -11   3   42.70   10.31
 -10 -11   3   30.39    5.95
 -10 -11  -3   31.97   13.74
  11 -10   3   44.36   16.38
 -10 -11   3   35.36    8.32
 -11  10   3   24.26   10.52
 -10 -11  -3   33.35   12.06
  11 -10   3   41.70   12.99
  11 -10   3    9.31   14.69
  11 -10   5   42.40   15.18
  10  11  -5   57.38   12.20
  10  11   5   35.81   14.75
 -11  10  -5   22.74    8.80
 -10 -11  -5   57.47   16.71
 -10 -11   5   37.38   11.10
 -10 -11  -5   41.21   17.01
 -11  10   5   77.80   17.86
  10  11  -5   22.96    8.61
  11 -10  -5   68.21   17.60
  10  11   5   75.85   17.80
 -11  10  -5   81.60   19.90
 -11  10   5   37.62   10.74
 -10 -11   5   64.14   10.98
 -10 -11   5   34.26    8.78
 -11  10   5   50.34   15.23
 -10 -11   5   45.83   12.37
 -10 -11  -5   55.26   13.99
  11 -10  -5   43.46   12.05
 -11  10  -7   44.31   19.99
  11 -10   7   11.08   16.76
 -10 -11  -7  -13.35   18.11
 -10 -11  -7   19.59   15.46
  10  11   7   -9.64   16.86
 -11  10   7    6.93   16.26
  11  -9   0  -14.52   14.55
  -9 -11   0   10.80    7.51
   9  11   0   -9.70   11.66
   9  11   0    0.58    7.01
  -9 -11   0    7.31   11.41
  11  -9   0  -15.64   12.47
  -9 -11   0   -0.79   10.28
 -11   9   0  -11.45   11.85
   9  11   0    7.38   11.61
 -11   9   0  -13.19   13.09
  -9 -11   2   37.10    8.10
  11  -9  -2    6.77   12.68
 -11   9  -2   33.92   11.48
  -9 -11  -2   30.81   11.15
  -9 -11   2   24.85    9.83
   9  11  -2   40.53   10.29
  11  -9  -2   52.63   12.59
  11  -9   2   39.09   12.22
   9  11  -2   38.67    9.76
  -9 -11   2   21.51    2.95
 -11   9   2   11.57   13.24
 -11   9   2   58.15   10.77
   9  11   2   42.97   11.13
  11  -9   2   23.15   12.97
  -9 -11   2   27.65    5.17
  11  -9  -4   20.94   10.89
  -9 -11  -4   21.19   11.81
  -9 -11   4    4.58   10.46
 -11   9  -4    3.13   16.33
  -9 -11   4   10.90    7.86
   9  11   4   16.11   13.31
   9  11   4   19.21   14.77
  -9 -11   4   -0.24    8.04
  11  -9   4   21.93   13.07
  -9 -11  -4    4.79   13.61
   9  11  -4   21.11   10.06
  -9 -11   4   13.73    9.75
  11  -9  -4   30.25   14.50
  -9 -11  -4    3.33   13.65
 -11   9   4   10.15   15.27
 -11   9   4   16.87    9.26
  11  -9  -4   17.18   13.36
   9  11  -4   25.56    8.77
 -11   9  -6   -5.39   19.72
  11  -9   6    7.79   15.95
   9  11   6    3.60   15.55
   9  11  -6    7.43   13.66
  11  -9  -6    7.25   17.43
  -9 -11  -6   -1.35   13.96
 -11   9   6   -2.62   18.70
  -9 -11   6    2.24   14.15
   9  11   6   61.96   19.57
  -9 -11   6   -0.45    9.78
  -9 -11  -6   25.37   16.58
  -9 -11  -6   21.51   18.03
 -11   9   6    5.91   19.44
 -11   9  -6   15.90   19.03
 -11   9   6  -14.05   15.56
 -11   8  -1    1.26   11.29
 -11   8  -1   23.56   14.49
   8  11   1   11.09   11.88
  11  -8  -1    6.25   12.95
  -8 -11  -1   12.13    9.62
   8  11  -1   15.90   10.79
  11  -8   1    6.47   11.88
  11  -8   1    5.82   15.50
  -8 -11   1   -5.33    9.31
 -11   8   1    3.20   12.07
   8  11  -1  -15.68   10.29
  -8 -11  -1    1.85   12.05
  11  -8   1   -9.69   12.35
  -8 -11   1  -10.62   10.59
   8  11   1   -2.40    9.63
  -8 -11  -1   -0.41   11.24
   8  11   1   -3.84   12.75
 -11   8   1  -11.89   12.22
  -8 -11   1    4.34    6.69
  11  -8   3  222.22   17.98
  11  -8  -3  201.95   17.89
 -11   8  -3  159.68   20.67
   8  11   3  212.55   17.74
   8  11   3  194.59   17.52
  -8 -11   3  200.92   14.00
  11  -8   3  194.49   21.39
  -8 -11   3  187.31   11.76
 -11   8  -3  215.89   19.28
 -11   8  -3  217.59   17.27
  11  -8   3  213.13   18.61
  -8 -11  -3  208.83   18.10
  -8 -11  -3  213.10   18.26
   8  11  -3  233.02   15.03
  -8 -11   3  222.54   15.97
  11  -8  -3  206.78   15.89
 -11   8   3  219.37   14.86
  -8 -11   3  229.64   13.59
  11  -8  -3  207.76   18.00
 -11   8  -3  214.13   15.24
  -8 -11  -3  236.10   16.59
  11  -8  -5  105.58   11.31
   8  11   5  118.99   16.26
   8  11   5  120.53   19.33
 -11   8   5   74.41   15.13
  11  -8  -5  106.48   17.46
   8  11  -5   95.26   13.96
  -8 -11  -5  116.25   17.97
 -11   8  -5   88.59   10.52
  -8 -11  -5  110.13   15.23
  11  -8   5   84.11   16.20
  -8 -11   5  114.52   11.83
  -8 -11   5   76.81   12.60
 -11   8  -5   77.08   19.87
  -8 -11  -5   71.55   15.71
  -8 -11   5   88.71    8.03
  -8 -11   5   65.06   13.72
   8  11  -5   72.49   11.15
 -11   8   5  110.95   19.30
   8  11  -7   15.86   15.89
 -11   8  -7   -4.63   19.72
   8  11   7   16.95   15.89
 -11   8   7  -17.22   15.72
  -8 -11   7   -9.69   16.63
 -11   8   7   -5.64   20.92
  11  -8   7   -1.61   17.00
  -8 -11  -7   -6.65   17.10
  -8 -11  -7   -1.48   15.07
  11  -8  -7    3.52   19.00
 -11   7   0  -19.31   12.87
   7  11   0   -0.72   10.78
   7  11   0    4.52    6.03
  11  -7   0   11.68   13.41
  -7 -11   0    3.54    8.37
   7  11   0  -15.20   11.93
  -7 -11   0    0.35   10.07
  11  -7   0   20.96   13.19
  -7 -11   0   -2.43   11.76
 -11   7   0   -6.57   11.36
  11  -7  -2   40.37   10.81
  -7 -11   2   34.92    7.41
   7  11   2   48.02   11.89
   7  11  -2   33.71   10.21
  -7 -11  -2   39.85   12.20
 -11   7  -2   25.32   11.61
   7  11  -2   37.18    9.30
  -7 -11   2   38.31    7.79
  11  -7  -2   33.76   12.11
 -11   7  -2   26.46   10.66
  11  -7   2   49.80   13.24
  -7 -11   2   30.19   10.49
 -11   7   2   53.13    9.83
  11  -7   2   29.97   12.26
  11  -7   4   13.34   12.65
  -7 -11   4   -8.65   11.20
  11  -7  -4    2.85   13.65
 -11   7  -4  -30.44   17.22
 -11   7   4   21.31   14.62
  -7 -11   4    4.20    6.16
  -7 -11  -4   -1.19   13.54
   7  11   4   -9.44   14.33
  11  -7   4   30.36   14.24
  11  -7  -4    8.04    8.88
  11  -7  -4    9.01   12.95
   7  11  -4   25.37   10.35
 -11   7  -4   12.38   14.68
  -7 -11   4   11.45   10.47
  -7 -11   4   13.09    7.85
  -7 -11  -4   22.43   11.75
 -11   7  -4   -8.74    8.75
 -11   7   4   13.81    7.64
  -7 -11  -4   -4.93   13.06
   7  11  -4   12.78    9.60
   7  11   4    7.88   12.34
  -7 -11  -6   12.18   17.61
 -11   7  -6  -12.30   19.04
  -7 -11   6    6.21   10.55
  11  -7   6  -13.62   15.99
 -11   7   6   -8.47   13.94
  -7 -11   6  -13.61   14.67
   7  11   6   30.18   15.51
  -7 -11  -6   -1.32   13.56
 -11   7   6  -15.05   18.49
 -11   7   6   24.26   18.49
   7  11  -6   25.76   14.60
  -7 -11  -6   20.67   15.37
  11  -7  -6   -6.79   17.28
   7  11   6   18.60   18.80
   7  11   8  -15.62   17.39
  -7 -11  -8   -2.42   15.69
  11  -6   1  334.25   21.39
 -11   6  -1  304.11   23.51
  11  -6  -1  337.19   21.77
  -6 -11  -1  288.30   20.02
   6  11  -1  335.03   20.60
 -11   6  -1  371.05   21.01
  -6 -11   1  347.46   19.45
  11  -6   1  309.59   21.51
 -11   6   1  334.79   21.34
   6  11   1  341.20   21.95
   6  11   1  304.12   20.40
  -6 -11  -1  276.70   21.01
  -6 -11   1  332.35   20.82
   6  11  -1  330.66   19.57
  11  -6   1  305.67   23.19
  -6 -11  -1  333.71   20.62
  -6 -11   3   88.86   11.75
 -11   6  -3   84.27   11.01
 -11   6  -3  106.88   18.01
  -6 -11  -3   93.52   12.25
   6  11   3   84.52   12.98
  11  -6  -3   72.90   13.63
  -6 -11   3   93.96    7.92
  11  -6  -3   90.67   13.36
 -11   6   3   70.50   14.17
  -6 -11   3   76.62   10.50
   6  11  -3   97.27   11.51
 -11   6   3   75.81    8.88
 -11   6  -3   92.76   14.46
  -6 -11  -3   62.99   12.84
   6  11   3   83.47   14.46
  -6 -11  -3   83.64   13.80
  11  -6  -3   87.44   10.16
  11  -6   3   85.39   13.02
  11  -6   3   87.11   14.27
  -6 -11   3   71.18    6.32
   6  11  -5   89.90   13.88
  -6 -11  -5  109.19   14.22
 -11   6  -5   49.78   18.59
  11  -6   5  111.73   15.42
  -6 -11   5   93.52   13.14
 -11   6   5   71.93   17.33
  11  -6   5   64.41   16.70
 -11   6  -5   69.32    9.89
  -6 -11   5   61.83    9.05
  11  -6  -5   62.43   16.41
   6  11   5   64.34   14.43
  11  -6  -5   54.13    7.25
  -6 -11   5   62.15   13.55
  -6 -11  -5   80.90   14.83
  -6 -11  -5   26.48   16.36
   6  11  -5   83.66   11.95
   6  11   5   59.21   17.37
 -11   6   5   60.12   16.58
   6  11  -7    3.52   16.39
 -11   6  -7   14.64   19.43
 -11   6   7   -4.46   19.77
  11  -6   7   69.71   18.37
  -6 -11  -7   -6.58   15.17
 -11   6   7   15.35   14.43
  11  -6  -7   -2.48   18.29
  -6 -11   7   28.91   17.04
 -11   6   7   46.21   20.12
  -6 -11  -7   30.10   16.24
   6  11   7    1.48   15.83
   5  11   0   -1.16   10.95
  -5 -11   0   -3.49    9.38
 -11   5   0  -12.01   13.42
  -5 -11   0    4.68   11.65
   5  11   0    7.05   10.43
  -5 -11   0   -1.55    9.79
  11  -5   0  -17.14   13.76
  11  -5   2  -21.07   12.60
  -5 -11  -2  -12.70   11.53
  11  -5  -2    6.26   10.11
  -5 -11   2   -6.44    8.73
 -11   5  -2   -7.81   12.78
   5  11  -2    3.80    8.22
  11  -5  -2   -4.96   11.90
 -11   5  -2    0.38   10.45
  -5 -11   2   -9.51    6.22
  11  -5  -2   -3.26   11.18
   5  11   2   -4.80   11.38
  -5 -11  -2    0.94   11.31
  -5 -11   2  -16.76   11.23
   5  11  -2  -20.91   10.70
 -11   5   2    9.50   12.10
 -11   5   2    2.98    8.74
  11  -5   2    7.77   11.55
 -11   5  -2    7.15   10.87
 -11   5  -4    7.11    9.11
  -5 -11   4   10.15    6.94
   5  11   4   11.23   11.84
  11  -5  -4   21.30    6.21
  11  -5   4   -1.10   12.28
  -5 -11  -4   14.02   11.15
 -11   5   4   20.29    5.51
   5  11   4   11.22   14.69
  -5 -11   4   11.45    3.78
  -5 -11   4   15.35   11.04
   5  11  -4    8.46   11.13
 -11   5  -4   37.80   15.07
  11  -5  -4   15.06   12.93
 -11   5   4   27.39   14.30
  11  -5   4   15.62   14.32
  -5 -11  -4   13.67   12.79
 -11   5  -4  -11.81   16.31
  -5 -11   4   23.11   12.39
  11  -5  -4   20.89   12.90
   5  11  -4   22.69    9.74
  -5 -11  -4   29.53   14.05
  -5 -11   6    7.54   11.32
 -11   5  -6   33.90   19.05
   5  11   6    1.74   18.41
   5  11  -6   13.48   15.50
  -5 -11   6   -4.33   14.80
   5  11   6   -1.98   14.31
  11  -5  -6   -9.79   16.07
  -5 -11  -6    3.93   14.13
  -5 -11  -6   35.93   18.06
 -11   5   6   43.78   17.82
 -11   5   6    3.62   13.50
  11  -5   6  -18.82   16.34
 -11   5   6  -24.01   17.81
  -5 -11  -6   24.65   14.72
   5  11  -6   18.74   11.13
 -11   5  -6   -9.51    8.96
   5  11   8  -52.45   18.04
  -5 -11   8  -18.08   19.54
  -5 -11  -8   -6.48   15.97
   5  11  -8    3.34   18.52
  11  -4   1  314.38   19.93
   4  11   1  305.51   19.32
 -11   4  -1  310.93   20.08
   4  11  -1  325.54   19.74
  -4 -11   1  325.91   19.74
 -11   4   1  290.32   19.87
  -4 -11  -1  294.39   19.35
 -11   4   1  272.68   20.18
 -11   4  -1  291.32   22.06
   4  11  -1  315.16   18.02
  11  -4  -1  265.72   19.34
  -4 -11   1  291.59   17.94
  -4 -11  -1  310.45   19.18
  11  -4  -1  298.19   20.37
  11  -4   3   63.20   12.37
  11  -4   3   50.83   13.16
  11  -4  -3   59.00    7.77
 -11   4  -3   76.71   16.61
   4  11  -3   65.61   10.63
 -11   4  -3   47.14   14.44
  -4 -11   3   49.67    5.70
   4  11   3   55.28   13.33
   4  11  -3   43.61    6.78
   4  11   3   60.12   13.90
  11  -4  -3   57.33   12.79
   4  11  -3   73.54   11.08
  11  -4  -3   91.76   12.87
  -4 -11   3   43.66    5.47
  -4 -11   3   44.01    5.33
 -11   4   3   41.56   12.86
  -4 -11  -3   60.73   11.57
   4  11   3   40.55   12.00
  -4 -11  -3   57.67   13.47
  -4 -11   3   69.01   12.56
  -4 -11   3   50.52   10.69
 -11   4   3   41.20    6.58
  -4 -11  -3   60.92   12.90
  11  -4   5   14.57   13.73
  -4 -11   5   56.44   13.13
 -11   4  -5   46.72   17.79
   4  11  -5   29.25   13.41
  -4 -11   5   31.28    8.97
 -11   4  -5   10.14   15.67
  -4 -11  -5   26.25   16.06
 -11   4   5   15.72   15.14
   4  11   5   38.55   16.85
 -11   4   5    9.08   15.07
  11  -4   5   22.53   16.24
 -11   4  -5    8.57    9.11
  -4 -11  -5    6.05   13.46
   4  11   5   11.18   13.06
  11  -4  -5    2.32   13.70
   4  11  -5   20.30   10.80
  -4 -11   5    8.97   13.40
  -4 -11  -5   27.32   12.91
  -4 -11   7    6.77   16.95
  -4 -11   7   -3.34   13.06
  11  -4  -7   16.13   17.36
   4  11  -7   13.45   17.27
  -4 -11  -7   13.01   15.19
  -4 -11  -7   27.74   15.52
 -11   4  -7    8.26   19.17
 -11   4   7   -6.16   14.24
  11  -4   7   24.08   17.65
 -11   4   7    0.84   18.98
   4  11   7  -12.91   15.88
 -11   4   7    0.89   19.31
 -11   3   0   -2.29   12.53
   3  11   0   13.35    9.94
  -3 -11   0   -4.57    9.26
   3  11   0  -13.97   11.20
  11  -3   0    1.83   11.62
   3  11   0   -2.64    6.17
  -3 -11   0   -6.45   11.28
  11  -3   0    2.17    9.78
 -11   3   2   -1.99    7.83
  -3 -11   2    5.39    9.70
   3  11   2  -12.22   12.18
   3  11   2  -10.23   12.48
  11  -3  -2    3.07   10.01
  11  -3  -2    9.27    8.12
  11  -3   2   26.36   11.98
   3  11  -2    9.84   10.56
  -3 -11  -2   -4.82   11.35
 -11   3  -2    2.04   10.91
  -3 -11  -2    6.24   12.31
  11  -3  -2  -19.87   12.73
 -11   3  -2   -6.76   10.51
   3  11  -2    2.11    6.97
 -11   3  -2   -0.40   12.54
  -3 -11   2   -6.35    6.18
  -3 -11   2   20.28   12.41
 -11   3   2  -10.41   12.68
   3  11  -4   10.89   10.54
   3  11   4   18.15   11.81
  -3 -11   4   45.70   13.60
  -3 -11   4   13.68   11.64
 -11   3  -4   10.06    9.72
  11  -3  -4   39.57   12.44
  11  -3   4   11.54   10.45
 -11   3   4    9.72   14.22
 -11   3   4   19.90   13.14
  11  -3   4    2.42   13.41
  -3 -11  -4   16.96   11.78
  11  -3   4    9.89   12.66
   3  11   4   36.55   14.87
 -11   3  -4   31.64   14.87
  -3 -11  -4   18.83   13.88
  -3 -11  -4   21.89   12.41
   3  11  -4   23.00   11.82
 -11   3  -4    8.01   16.21
  11  -3  -4   19.11   12.47
 -11   3   6  -20.28   16.68
 -11   3  -6   23.37   18.88
  -3 -11  -6   14.41   13.89
  11  -3   6   -1.76   11.48
   3  11  -6   26.73   15.65
  11  -3   6   29.28   15.90
 -11   3  -6   42.37   18.85
  -3 -11   6   12.93   14.37
  11  -3   6   10.13   17.95
  -3 -11  -6   21.40   17.74
   3  11   6  -17.36   14.10
 -11   3   6  -12.77   12.81
 -11   3   6   16.07   16.80
  -3 -11  -6   10.27   13.74
   3  11   6   -7.76   19.06
  11  -3  -6   25.75   15.10
   3  11  -6    8.51   11.78
 -11   3  -6   21.99    9.69
   3  11   8    6.20   16.77
 -11   2   1   92.94   11.82
 -11   2  -1  103.39   16.00
  11  -2   1   50.57   12.95
 -11   2  -1   84.32   12.24
 -11   2   1   83.56   12.99
 -11   2  -1   75.62   12.34
   2  11   1   80.37    9.94
  11  -2  -1   69.03   13.43
  -2 -11   1   83.31    9.44
  -2 -11   1   89.24   12.52
   2  11  -1   85.48   12.56
  -2 -11  -1  101.16   11.85
   2  11   1   84.62   11.27
  11  -2   1   70.11   11.96
   2  11  -1  114.58    9.93
  -2 -11  -1   97.72   12.60
  -2 -11   3    2.65   11.90
  -2 -11   3   -0.71    3.66
  11  -2  -3  -15.99   10.83
  -2 -11   3   -3.50    6.26
  11  -2   3    6.11   11.30
 -11   2  -3   -2.97   13.14
  11  -2  -3   16.94   11.52
  -2 -11  -3    2.39   11.34
  11  -2   3    1.47   12.26
  -2 -11   3   -9.54   10.88
   2  11   3    8.65   13.55
   2  11   3    6.27   12.14
  11  -2   3   -0.79   10.05
   2  11  -3    3.38    4.00
 -11   2   3    2.32   12.44
  -2 -11  -3   18.50   11.32
   2  11  -3   -8.73   11.46
   2  11   3    0.45   10.81
 -11   2  -3    8.69    9.48
   2  11  -3   10.16   11.37
  -2 -11  -3  -25.20   12.84
 -11   2   3   -2.02    2.75
 -11   2  -3   13.44   15.46
 -11   2  -5   35.84    9.96
  11  -2   5   25.71   16.27
   2  11  -5   22.44   14.00
  11  -2   5   38.90   14.31
  -2 -11   5   22.26   14.44
  11  -2  -5   34.06   13.17
 -11   2  -5   35.18   17.61
 -11   2   5   19.44   15.35
  -2 -11  -5   31.64   15.55
  11  -2   5   16.60   11.05
  -2 -11  -5   14.03   12.31
  -2 -11   5   19.49   13.57
   2  11  -5   40.31   12.49
  -2 -11  -5   43.47   13.15
   2  11   5   31.11   12.43
   2  11   5   17.68   15.74
 -11   2   5   45.85   14.09
 -11   2  -5   53.33   16.76
 -11   2  -7  -21.30   19.26
 -11   2   7   17.69   18.19
 -11   2   7   24.09   18.54
  -2 -11   7  -17.21   18.15
   2  11   7    9.15   15.05
  11  -2  -7   -0.72   15.92
 -11   2   7   -4.54   13.52
  -2 -11  -7    8.87   14.89
  11  -2   7   16.80   17.05
   2  11  -7   11.81   18.04
  -1 -11   0    0.84    8.87
   1  11   0    0.55    9.61
   1  11   0   -1.49    7.33
 -11   1   0    5.80   11.67
 -11   1   0   -4.26   11.04
  11  -1   0    8.53    8.62
  11  -1   0   -1.37   11.74
   1  11   0   -2.61   11.39
  -1 -11  -2  483.45   28.51
  11  -1  -2  510.60   26.49
  11  -1   2  473.59   27.59
 -11   1   2  490.21   27.98
 -11   1  -2  490.47   27.63
 -11   1   2  476.53   25.60
   1  11  -2  511.59   28.00
  -1 -11   2  445.58   24.57
  -1 -11   2  502.31   25.25
   1  11  -2  490.21   25.15
   1  11   2  467.94   28.48
  -1 -11  -2  452.93   28.16
  -1 -11   2  491.38   28.69
 -11   1  -2  475.98   28.25
   1  11   2  472.08   28.58
   1  11   2  509.84   27.44
  11  -1  -2  492.69   28.29
  11  -1   2  492.01   27.97
  -1 -11   2  516.20   27.33
 -11   1   4   -1.71   11.27
  -1 -11   4   13.31   13.72
  11  -1  -4    8.99   11.05
  -1 -11  -4   18.70   12.00
 -11   1   4    9.62   13.38
  11  -1   4   25.89   13.94
   1  11  -4    8.18   12.40
  -1 -11  -4   26.62   12.62
  -1 -11   4   10.78    7.81
   1  11   4   19.81   14.27
 -11   1  -4   -0.59   14.25
  -1 -11  -4   18.88   12.51
  -1 -11   4   17.18   12.08
   1  11  -4   38.46   12.01
  11  -1   4   32.41   11.05
 -11   1  -4  -21.72   16.40
  11  -1   4    3.84   12.46
  11  -1  -4   19.12   11.64
 -11   1  -4   24.93   10.10
   1  11   4    8.62   12.94
   1  11   4   10.28   12.02
 -11   1  -6   10.51    9.87
  11  -1   6   26.56   16.31
  11  -1   6    9.26   17.72
   1  11   6   -3.81   13.59
  11  -1  -6    8.30   14.31
  11  -1   6   17.03   11.94
 -11   1   6   24.82   16.48
   1  11   6   19.40   16.72
 -11   1   6   -3.29   16.29
 -11   1  -6   29.58   19.00
   1  11  -6   14.49   16.39
  -1 -11   6   30.63   15.81
  -1 -11  -6   23.09   14.39
 -11   1   6    4.08   11.73
 -11   1  -6   30.37   17.66
   1  11  -6    4.16   13.93
   1  11   8  -22.10   16.57
 -11   1   8   -4.57   19.81
  11  -1  -8   24.81   17.51
 -11   0  -1   32.66   10.89
   0  11  -1   60.56    8.25
 -11   0   1   22.95   11.15
   0 -11   1   38.89    8.51
   0  11  -1   38.37   12.67
   0  11   1   34.43    9.84
 -11   0  -1   56.06   11.82
  11   0  -1   44.08   11.99
   0 -11  -1   90.78   12.67
   0  11   1   72.02   11.98
 -11   0  -1   48.21   11.58
  11   0   1   21.20   10.25
   0 -11   1   47.14    7.28
   0  11   1   49.32   11.49
 -11   0   1   55.02   10.24
   0  11  -1   42.75    6.60
   0 -11  -1   36.69   12.75
   0 -11   1   59.68   12.92
   0 -11  -1   39.66   10.61
  11   0   1   45.19   11.79
   0 -11   3   82.45    8.88
   0  11   3   87.02   12.88
  11   0   3   72.02   13.54
 -11   0   3   75.32   12.96
   0  11   3   57.70   13.06
  11   0  -3   98.30   12.76
   0  11  -3   68.75   13.31
   0 -11  -3   76.08   14.17
  11   0   3  102.23   12.52
  11   0  -3   82.14   10.46
 -11   0   3   53.15   11.22
 -11   0  -3   76.85   13.54
   0  11   3   73.82   12.77
   0 -11   3  107.05   13.18
   0 -11  -3   98.29   12.77
   0 -11  -3   77.32   12.65
   0  11   3   50.42   14.49
 -11   0  -3   75.66   11.62
   0  11  -3   99.72   13.10
   0 -11   3   59.17   14.57
 -11   0  -5    3.25   10.15
 -11   0  -5   29.77   18.41
 -11   0   5   -1.22   14.50
   0 -11   5   23.46   15.02
   0  11   5   24.82   15.30
 -11   0  -5  -11.15   16.11
   0 -11   5   21.30   13.85
  11   0  -5   -0.47   12.26
  11   0   5    4.95   15.57
   0 -11  -5    9.22   12.69
  11   0   5    3.81   11.97
  11   0   5   12.82   14.00
   0 -11   5    7.00   10.37
   0  11  -5    9.58   14.53
 -11   0   5   -5.71   13.27
   0  11  -5   -2.09   13.44
   0  11   5    3.44   12.53
  11   0   7    5.92   20.05
  11   0  -7   14.18   15.61
 -11   0   7   -3.23   17.88
 -11   0   7  -11.50   16.88
   0  11  -7  -10.96   14.29
  11   0   7  -31.41   18.88
   0  11   7   24.27   15.27
 -11   0  -7   37.75   20.25
   0 -11  -7  -13.50   14.45
 -11   0   7   14.44   12.54
   0 -11   7   10.65   13.38
   0 -11   7  -14.69   17.71
   0  11  -7    3.30   18.12
 -11  -1   0   10.04   10.19
   1 -11   0   -1.41    8.28
   1 -11   0    4.94    9.85
  -1  11   0  -12.29    9.61
  -1  11   0    2.66    8.34
  11   1   0   -1.81    7.45
  11   1   0    8.98   11.13
  11   1   2  974.38   49.65
 -11  -1   2  947.23   47.89
   1 -11   2  949.97   50.65
   1 -11  -2  955.76   50.31
  -1  11   2  980.36   49.78
  11   1  -2 1008.10   49.65
  11   1   2  867.40   49.79
  11   1   2  914.70   49.93
  -1  11   2 1018.53   50.06
   1 -11  -2  972.43   49.97
  -1  11  -2  978.29   50.19
  11   1  -2  954.58   48.11
   1 -11   2  955.20   47.91
 -11  -1  -2  979.75   49.69
 -11  -1  -2  914.25   49.71
  -1  11  -2  940.56   47.71
   1 -11   2 1009.99   49.82
 -11  -1   2  952.46   49.55
   1 -11   4   -0.61    8.64
   1 -11   4   -7.03   13.88
  -1  11   4   -1.04   11.54
  11   1   4   35.10   13.66
 -11  -1   4    9.62   10.99
  11   1  -4   17.64   11.35
  -1  11   4   15.10   13.33
  11   1   4   -0.46   11.20
  -1  11  -4    3.12   13.01
  11   1  -4   12.23    9.77
  -1  11   4   31.02   12.30
 -11  -1  -4    8.06   14.03
   1 -11  -4   27.83   11.74
 -11  -1   4    3.93   12.73
   1 -11   4   11.37   12.84
 -11  -1  -4   33.16   10.32
  -1  11  -4    9.73   12.99
 -11  -1   6   74.36   16.19
 -11  -1  -6   78.59   12.47
  -1  11   6   55.99   18.40
  -1  11  -6   67.56   17.81
 -11  -1  -6   82.80   19.40
  11   1   6   48.38   16.63
   1 -11   6  102.36   17.75
  11   1  -6   56.66   14.19
 -11  -1   6  108.28   18.26
   1 -11  -6   66.34   18.37
   1 -11  -6   83.37   14.26
 -11  -1  -6   51.35   19.59
  11   1   6   58.66   14.24
   1 -11   6   90.19   13.16
  11   1   6   76.54   18.92
  -1  11   6   58.27   15.12
  -1  11  -6   64.10   15.51
  11   1  -8    0.76   16.61
 -11  -1   8  -21.06   19.91
 -11  -1   8   -7.16   19.77
  -1  11   8    7.55   16.03
   2 -11   1  358.08   22.00
 -11  -2   1  296.79   19.69
 -11  -2  -1  316.88   21.04
  -2  11   1  319.22   20.61
 -11  -2   1  343.84   21.66
  -2  11  -1  325.45   18.37
  11   2   1  325.19   21.14
  11   2  -1  327.52   20.74
  -2  11  -1  318.48   21.25
   2 -11  -1  326.49   19.49
  -2  11   1  322.64   21.65
   2 -11  -1  350.15   21.29
   2 -11   1  338.28   18.41
  -2  11   1  301.42   19.97
  11   2   1  333.45   19.23
   2 -11  -1  328.72   21.69
  11   2   1  366.06   20.73
 -11  -2  -1  280.91   19.38
  11   2  -1  306.51   17.20
  -2  11  -1  306.62   18.36
 -11  -2  -1  328.52   20.14
   2 -11   3   37.23    8.87
  -2  11   3   41.49   12.29
  11   2  -3   35.94    8.73
   2 -11   3   37.54   14.77
  -2  11  -3   55.47   12.85
  -2  11   3   59.50   12.42
  11   2   3   35.65   11.52
  11   2   3   38.07   12.42
  11   2  -3   38.71   10.94
 -11  -2  -3   40.96   12.80
  -2  11   3   54.59   12.10
 -11  -2   3   36.27   11.17
  11   2   3   43.05   11.62
 -11  -2   3   32.17    9.24
   2 -11  -3   32.27   11.12
 -11  -2  -3   26.07   10.43
  -2  11  -3   15.68   13.18
   2 -11   3   64.07   13.15
 -11  -2   5    9.73   14.53
  11   2  -5   12.34   11.61
  -2  11   5    0.58   12.72
   2 -11   5   16.99   14.41
 -11  -2   5    4.86   12.55
  11   2   5   -7.75   15.16
   2 -11  -5    5.54   15.10
 -11  -2  -5  -32.95   16.35
   2 -11   5   20.33   15.93
  11   2   5    4.74   12.74
  -2  11   5  -16.69   15.71
   2 -11   5   14.61   10.85
   2 -11  -5    5.08   11.80
 -11  -2  -5   -5.31   11.01
  -2  11  -5  -12.11   15.37
  -2  11  -5    7.70   14.52
   2 -11   7   27.96   18.27
   2 -11   7   12.40   13.62
 -11  -2  -7   -4.85   20.05
  11   2   7   39.61   20.92
  -2  11   7   18.68   15.20
   2 -11  -7   20.70   13.59
 -11  -2   7   -3.90   17.72
  11   2   7    6.67   14.22
 -11  -2  -7   20.88   11.75
  -2  11  -7   13.80   19.31
  -2  11   7   -6.90   21.08
  11   2  -7  -19.89   14.88
 -11  -2   7  -11.76   17.39
  -2  11  -7   13.13   16.33
 -11  -3   0   13.14    9.59
  11   3   0   -8.43   10.13
  11   3   0   -7.57   11.35
  11   3   0   -1.84    6.21
   3 -11   0    2.53    9.62
  -3  11   0    1.46    9.10
  -3  11   0   -4.07    9.48
   3 -11   0   -7.67   12.51
  11   3  -2  674.76   35.62
   3 -11   2  720.58   39.68
   3 -11   2  724.32   38.56
  -3  11  -2  697.03   36.53
 -11  -3   2  736.21   38.47
  11   3   2  718.93   38.66
  -3  11   2  719.92   38.21
 -11  -3   2  723.44   37.69
 -11  -3   2  675.70   35.67
  11   3   2  711.51   37.84
   3 -11   2  709.62   36.70
 -11  -3  -2  733.52   37.96
   3 -11  -2  723.66   38.18
  -3  11  -2  773.57   39.30
  -3  11   2  738.11   38.48
  11   3  -2  730.91   37.64
 -11  -3  -2  755.46   38.32
  -3  11  -2  720.12   36.04
  11   3   2  692.67   37.94
  -3  11  -4   13.34   14.60
   3 -11   4   20.57   13.50
  11   3   4    9.36   12.42
 -11  -3  -4    5.71   10.93
  -3  11  -4   12.85   13.75
   3 -11  -4   30.81   13.99
   3 -11   4   32.77   15.53
  -3  11   4   40.74   13.56
  11   3  -4   29.09    9.71
  11   3   4   38.62   13.68
 -11  -3   4   32.26   10.19
  -3  11   4   27.85   12.04
 -11  -3   4   59.07   12.93
 -11  -3  -4   15.32   13.96
  11   3   4   47.37   12.85
  -3  11   4   47.30   12.59
   3 -11  -4   37.90   11.91
   3 -11   4   16.46   10.30
  -3  11  -6   -7.31   16.54
  11   3   6   26.97   14.24
   3 -11   6   19.54   16.57
  -3  11  -6   12.96   17.42
 -11  -3  -6   -2.42   18.41
  11   3  -6   29.10   13.19
   3 -11  -6   27.86   17.29
   3 -11   6    6.68   12.72
 -11  -3   6   13.09   15.16
  -3  11   6   42.96   18.30
  11   3   6   15.24   17.86
  -3  11   6   21.21   14.10
 -11  -3  -6   40.69   12.22
 -11  -3   6   60.94   16.76
   3 -11  -6   25.34   12.66
  -3  11   8   -3.02   16.08
 -11  -3   8   -0.84   19.59
 -11  -3   8  -18.15   19.25
 -11  -4  -1   40.01    9.42
  11   4   1   55.99   11.11
  -4  11   1   40.85   11.66
   4 -11  -1   40.15   12.63
  -4  11  -1   45.77    8.98
   4 -11  -1   54.39   10.80
  -4  11   1   52.67   11.18
   4 -11   1   52.44   10.32
 -11  -4   1   54.65   12.18
  11   4  -1   44.95   10.71
 -11  -4   1   43.57    8.39
 -11  -4  -1   40.25   10.58
  -4  11   1   47.14   12.28
 -11  -4  -1   56.01   11.22
  11   4   1   39.89    9.25
 -11  -4   1   50.39    9.84
  -4  11  -1   50.46   13.48
  -4  11  -1   49.60    9.31
 -11  -4  -3   35.86   11.20
  -4  11  -3   14.74    4.65
   4 -11   3   35.73   13.30
  11   4   3   16.46   11.70
  -4  11   3   18.25   12.83
  11   4   3   37.48   11.63
 -11  -4   3    7.11    9.19
  -4  11   3   18.64   11.85
   4 -11  -3    5.76   12.81
 -11  -4   3   12.84   10.34
 -11  -4   3   27.57    7.93
  -4  11   3   30.42   11.13
  11   4   3   10.28   12.25
  -4  11  -3   -3.48   13.51
   4 -11   3   15.55   14.53
 -11  -4  -3   23.03   12.10
   4 -11  -3   30.71   10.46
  11   4  -3   22.56    7.53
  11   4  -3   19.05    9.28
  -4  11  -3   36.01   14.16
   4 -11   3   19.40    9.40
  -4  11   5  -20.12   16.25
  -4  11  -5    9.39   15.86
  -4  11   5   15.63   13.68
  11   4   5   -1.42   16.20
   4 -11  -5   -7.75   15.63
  11   4  -5   11.71   11.32
   4 -11   5  -14.06   16.89
   4 -11   5  -17.31   14.97
  -4  11   5   12.78   14.48
 -11  -4   5   -7.82   12.61
 -11  -4  -5  -24.62   15.28
  -4  11  -5   -1.99   15.81
  11   4   5    3.48   13.28
 -11  -4   5    1.06   13.42
   4 -11  -5   12.19   11.25
   4 -11   5    1.35   11.37
 -11  -4  -5    1.44   10.96
  -4  11  -7   -9.36   17.24
  -4  11   7   29.37   15.04
  11   4  -7    8.68   14.16
   4 -11   7   15.90   18.70
   4 -11   7   16.93   14.72
 -11  -4   7   37.59   17.56
 -11  -4  -7    1.72   12.89
  11   4   7   13.51   15.22
  -4  11  -7    8.98   19.72
 -11  -4   7   18.43   17.22
  11   5   0    4.16   11.70
  -5  11   0   -0.65    9.63
  -5  11   0   16.26   10.56
 -11  -5   0    5.28   10.04
 -11  -5   0   -1.23    4.84
   5 -11   0   -1.74   12.82
   5 -11   0    1.23   10.18
  -5  11   0   -9.90   13.20
 -11  -5   0   13.72    9.43
  11   5   0   -6.78    9.87
  11   5   0    0.11    4.92
  11   5   2  110.92   12.67
   5 -11   2  116.05   16.45
   5 -11   2  109.74   14.32
 -11  -5  -2  115.76   12.97
   5 -11  -2  128.32   13.91
 -11  -5  -2  107.45   13.47
  -5  11   2  102.52   13.96
  11   5  -2   97.93   11.10
 -11  -5   2  107.65   12.14
  11   5   2  119.80   12.47
  11   5   2  115.28   14.11
 -11  -5   2  108.94    8.56
  -5  11  -2  126.81   11.14
 -11  -5   2  107.49   11.22
  -5  11   2  109.63   13.06
   5 -11  -2   99.15   13.15
   5 -11   2  101.59   11.81
  -5  11  -2  127.54   16.08
 -11  -5   4   -2.85   10.88
   5 -11   4    3.62   10.73
   5 -11   4    7.01   16.40
  -5  11   4   13.37   12.55
  -5  11   4   19.92   15.25
   5 -11   4   15.46   14.18
 -11  -5  -4   12.54   13.67
  -5  11  -4  -36.46   14.50
  -5  11   4   -1.23   13.84
 -11  -5   4   -5.54   10.43
 -11  -5   4    7.48   10.06
  -5  11  -4   -1.92   15.38
 -11  -5  -4    0.94   11.02
  -5  11   4    6.53   11.36
   5 -11  -4    2.46   14.22
   5 -11  -4   -0.85   11.12
  11   5  -4   -9.36    9.46
  11   5   4  -12.33   13.67
  -5  11  -6    6.57   17.42
   5 -11   6   19.45   12.96
  -5  11  -6    2.40   17.93
 -11  -5  -6    3.80   12.18
 -11  -5   6   -8.02   14.64
  11   5  -6   13.87   12.70
  11   5   6   23.14   19.20
 -11  -5   6  -14.08   15.31
 -11  -5  -6  -23.42   18.25
   5 -11   6   -4.73   17.62
  -5  11   6  -13.01   19.22
   5 -11  -6   17.71   16.75
 -11  -5   6   11.08   11.43
   5 -11  -6    0.48   11.89
  -5  11   6   24.49   14.58
  -5  11   8  -16.70   16.63
   5 -11   8    8.20   16.51
   6 -11  -1  427.27   26.08
  -6  11  -1  459.53   24.67
   6 -11   1  429.23   24.90
  11   6  -1  406.56   25.57
 -11  -6  -1  391.83   23.43
   6 -11  -1  448.82   25.47
  -6  11   1  415.36   25.55
 -11  -6   1  463.68   23.76
 -11  -6   1  441.76   25.60
  -6  11   1  429.69   25.23
 -11  -6  -1  456.66   25.71
  11   6   1  421.96   23.67
  11   6  -1  422.11   24.02
  11   6   1  405.01   24.51
 -11  -6   1  452.76   24.03
  -6  11   1  440.48   25.76
  -6  11  -3   11.41   14.79
  -6  11   3   -4.12   12.21
  11   6  -3   19.95    8.40
   6 -11  -3    6.56   12.20
   6 -11   3   30.72   16.07
   6 -11   3    5.97   13.71
 -11  -6   3    0.92    8.81
  -6  11  -3   14.36   14.01
   6 -11   3    0.37   10.37
  11   6   3   -3.78   11.69
 -11  -6   3  -16.63    8.56
 -11  -6   3   -6.04    6.70
   6 -11  -3    0.54   12.99
  -6  11   3  -13.06   13.30
 -11  -6  -3    2.31   10.76
  -6  11   3   -8.49   10.58
  11   6  -3   -2.33    6.62
   6 -11  -3    5.34   11.40
 -11  -6   3    9.03    5.16
  11   6   3   18.64   11.34
 -11  -6  -3    0.46   12.21
 -11  -6  -5   25.52   12.09
  -6  11  -5  -17.99   16.98
 -11  -6   5   -3.52   11.94
   6 -11   5   12.84   17.34
  11   6  -5    6.06   10.92
   6 -11   5    7.74   15.22
 -11  -6  -5   18.66   15.77
   6 -11   5   -1.99   12.42
   6 -11  -5   12.91   15.57
   6 -11  -5   -0.43   10.90
  -6  11   5  -32.54   17.20
  11   6   5   28.34   16.01
 -11  -6   5  -11.69   13.20
 -11  -6  -5  -10.07   15.71
  11   6   5    1.76   13.89
  -6  11   5    3.21   12.12
 -11  -6   5   10.88   11.18
  -6  11  -5   -6.38   15.79
  -6  11   5    3.11   12.85
  -6  11   7   12.20   15.57
 -11  -6  -7   12.97   17.48
  11   6  -7  -28.76   15.40
  -6  11  -7    8.63   18.40
 -11  -6   7   11.04   17.02
 -11  -6  -7   -1.88   13.03
 -11  -6   7   -0.68   16.30
   6 -11   7   -8.02   15.58
 -11  -7   0   -6.39   11.30
   7 -11   0   -8.61   13.43
  11   7   0   -0.74    4.54
 -11  -7   0    0.82    4.65
  11   7   0   -3.93   12.11
 -11  -7   0    8.45   10.69
  -7  11   0  -15.45   11.83
 -11  -7   0   -6.11    8.49
   7 -11   0   -8.62   11.74
  -7  11   0   -4.91   13.02
  11   7   0    6.10    9.30
 -11  -7   2  529.59   27.45
  -7  11   2  522.47   30.44
 -11  -7  -2  509.22   29.03
   7 -11   2  524.63   28.95
  -7  11  -2  533.12   28.86
  11   7  -2  520.41   27.81
  11   7   2  483.80   29.04
   7 -11  -2  534.16   30.51
 -11  -7  -2  505.28   30.33
  11   7   2  505.70   29.16
  -7  11   2  511.39   29.24
   7 -11  -2  522.17   29.84
  -7  11  -2  545.62   31.97
   7 -11   2  461.02   31.24
 -11  -7  -2  516.96   29.61
   7 -11  -2  534.26   29.91
 -11  -7   2  556.00   28.91
 -11  -7   2  515.65   27.21
  -7  11  -4  -11.09   16.35
   7 -11   4   50.22   12.61
   7 -11  -4   43.65   15.36
 -11  -7   4   31.57    4.71
 -11  -7  -4   31.71   14.35
   7 -11  -4   53.54   11.62
   7 -11   4   38.71   14.93
 -11  -7  -4   50.20   15.02
  11   7  -4   56.12    9.55
  11   7   4   47.37   15.09
 -11  -7   4   55.71   10.33
 -11  -7   4   41.18   10.82
   7 -11   4   63.80   17.01
 -11  -7   4   41.69   10.03
  -7  11   4   47.74   11.02
  -7  11   4   45.19   14.68
  -7  11  -4   51.63   15.41
  11   7   4   43.66   13.54
  -7  11   4   39.16   13.13
 -11  -7  -4   42.19   12.08
  -7  11  -6   45.57   18.52
  -7  11  -6   34.93   18.64
   7 -11   6   27.03   14.53
 -11  -7   6   45.40   15.08
  -7  11   6   32.52   20.12
  11   7  -6   31.92   13.27
 -11  -7  -6   32.71   18.76
   7 -11  -6   23.64   11.76
   7 -11   6   14.00   18.05
   7 -11  -6   28.70   18.60
 -11  -7   6   32.31   11.15
  11   7   6   53.90   19.88
 -11  -7  -6   51.20   13.92
 -11  -7  -6   80.10   17.02
  -7  11   6   60.80   15.72
 -11  -7   6   41.69   14.95
  11   7   6   27.19   14.64
  11   8  -1  542.99   29.87
 -11  -8   1  553.97   27.46
  11   8   1  500.48   29.99
  11   8   1  521.99   27.81
  11   8   1  512.08   28.41
  -8  11   1  487.60   29.69
 -11  -8  -1  489.09   27.86
   8 -11   1  442.25   31.36
   8 -11  -1  575.17   30.44
  -8  11   1  547.68   30.02
  -8  11  -1  508.32   29.08
  11   8  -1  496.48   27.71
 -11  -8  -1  549.70   30.13
 -11  -8   1  516.97   28.52
   8 -11  -1  517.74   30.41
 -11  -8   1  536.83   29.31
   8 -11   1  557.72   29.78
  -8  11  -3   94.22   17.38
  11   8   3  129.07   15.10
   8 -11  -3  113.51   14.95
  -8  11   3  131.65   15.84
  -8  11  -3  123.79   13.06
  11   8  -3   97.29   10.10
 -11  -8   3  120.97    9.23
  11   8  -3  100.28    8.60
 -11  -8  -3   96.43   14.15
  -8  11  -3  103.33   10.17
  -8  11   3  119.44   13.09
 -11  -8   3  109.74    9.84
   8 -11   3  104.71   17.40
 -11  -8   3   79.55    7.86
 -11  -8  -3  102.60   12.77
  11   8  -3  111.27    9.55
 -11  -8   3  119.40   11.25
  -8  11   3  112.03   14.94
   8 -11  -3  129.58   14.22
   8 -11   3  101.28   15.25
  11   8   3  138.90   14.48
   8 -11   3   96.47   13.08
   8 -11  -3  143.18   13.79
   8 -11   5    4.40   13.16
  -8  11  -5   10.91    3.66
  -8  11  -5    5.47   18.41
 -11  -8  -5   18.67   12.40
   8 -11  -5    2.53   10.99
  11   8  -5   20.52   11.40
 -11  -8  -5   17.53   15.68
  -8  11  -5    2.24   17.14
 -11  -8  -5    3.72   15.20
   8 -11   5   -0.74   16.16
   8 -11  -5   10.98   15.49
  11   8   5    1.49   16.35
 -11  -8   5   19.89   11.74
 -11  -8   5   15.23   10.45
  -8  11   5   18.45   18.25
  11   8   5   -8.22   14.58
  -8  11   5   34.91   11.46
  -8  11   5  -12.36   14.58
 -11  -8   5   32.52   11.83
  -8  11  -7   27.25   19.27
   8 -11   7   -4.27   16.16
 -11  -8  -7   14.98   13.92
  -8  11   7   17.14   15.92
 -11  -8   7   40.52   17.13
  11   8   7   15.62   16.24
 -11  -8  -7   22.98   18.39
 -11  -8   7   30.60   15.77
 -11  -9   0  -15.99   10.99
 -11  -9   0   -4.68    5.15
   9 -11   0   13.78   12.13
   9 -11   0    6.95   14.46
  11   9   0   -9.72   11.73
  -9  11   0    6.67   11.94
  -9  11   0   -6.82   13.42
  11   9   0    2.77    8.19
 -11  -9   0   -2.03   10.68
   9 -11  -2   -0.45   12.07
  -9  11  -2   -0.82   10.49
  -9  11   2   18.55   11.07
  11   9   2    8.53    9.95
   9 -11   2   -8.43   11.56
 -11  -9  -2  -15.57   10.84
  11   9  -2   15.58    8.98
 -11  -9  -2    1.92   11.68
  11   9  -2   -2.49   11.06
   9 -11  -2   31.79   12.98
  -9  11   2  -14.90   13.31
  11   9  -2   -4.75    7.06
 -11  -9  -2    6.55   12.06
 -11  -9   2   -0.30    8.41
  11   9   2  -11.20   10.54
 -11  -9   2    9.80    9.19
 -11  -9   2   -0.19    5.92
   9 -11  -2    1.99   12.27
  -9  11  -4   12.78   17.12
 -11  -9   4   19.54    7.33
  11   9   4   54.96   14.19
 -11  -9   4   23.55    8.84
   9 -11   4   26.29   14.88
  11   9   4   14.46   14.73
 -11  -9  -4   39.62   14.08
 -11  -9   4   22.33    9.66
  -9  11   4   26.52   13.39
  11   9  -4   26.12    8.93
 -11  -9  -4   14.46   13.87
  -9  11  -4   12.51    8.38
   9 -11  -4    9.07   14.94
   9 -11   4    4.91   17.70
  11   9  -4   25.71    6.62
  -9  11   4   20.06   10.99
   9 -11   4   20.48   12.49
  -9  11  -4   37.09   15.85
 -11  -9  -4   27.88   11.88
   9 -11  -4   36.83   11.51
  -9  11  -6    9.37   19.24
   9 -11   6   -3.45   17.77
   9 -11   6  -15.69   14.97
  -9  11   6   24.29   15.23
  -9  11   6   46.41   18.87
 -11  -9   6    4.83   14.24
 -11  -9   6    4.60   13.29
  11   9  -6  -15.45   13.23
  11   9   6   18.65   18.69
 -11  -9  -6   24.87   18.35
 -11  -9  -6  -24.75   16.38
 -11  -9  -6   10.99   14.12
  -9  11   6   -6.22   19.12
   9 -11  -6   10.86   18.56
  11   9   6  -20.52   15.69
  -9  11  -6    0.87   18.80
  10 -11  -1   27.47   12.90
 -10  11  -1   -4.01   14.54
  10 -11  -1   22.43   13.39
 -10  11  -1   31.30   11.11
 -11 -10   1   19.86    9.70
  10 -11   1   -8.16   15.68
  11  10   1    6.25    9.15
  10 -11   1    7.54   13.17
  11  10  -1    4.51   11.54
 -11 -10  -1   14.85   10.69
 -11 -10  -1   10.25    8.85
 -11 -10   1   30.02   10.47
  11  10  -1    5.45    9.94
  10 -11   1    6.15   11.77
 -11 -10  -1    6.43   11.06
 -10  11   1   12.51   12.38
 -10  11   1   12.31   11.81
  11  10   1   20.76    9.11
  11  10  -1   15.29    7.29
 -10  11  -3   52.04   10.35
 -11 -10   3   43.78    5.91
 -10  11   3   39.22   14.89
  10 -11  -3   62.71   13.53
 -10  11  -3   27.72   16.62
  11  10   3   55.13   13.47
 -11 -10   3   44.86    9.15
  10 -11  -3   77.67   15.17
  10 -11   3   44.01   17.97
 -11 -10  -3   32.02   12.37
 -10  11  -3   43.56   12.32
 -11 -10  -3   47.87   12.37
  11  10  -3   40.50    8.96
 -10  11   3   56.27   11.84
 -11 -10   3   70.26    7.89
  10 -11   3   59.39   12.44
 -11 -10   3   58.37    9.44
  11  10   3   57.93   12.99
  10 -11  -3   43.20   12.39
  10 -11   5   27.84   14.43
 -10  11   5   31.54   14.92
 -10  11  -5   29.32   18.61
 -11 -10  -5   67.68   13.74
 -11 -10   5   44.52   11.89
  11  10   5   55.21   15.61
 -11 -10   5   26.62    8.17
 -11 -10  -5   48.06   17.40
 -10  11  -5   88.61   19.41
  10 -11  -5   68.93   17.55
 -11 -10  -5   47.12   16.67
  11  10   5   51.57   17.93
  11  10  -5   27.13   11.68
 -10  11  -5   37.24    7.52
 -11 -10   5   52.42    9.98
  10 -11   5   34.96   16.67
 -10  11   5   72.40   12.02
  11  10  -5   34.74    6.63
 -11 -10   5   68.04   10.27
  10 -11  -5   68.95   12.21
 -11 -10  -7   -1.47   14.97
 -10  11  -7  -21.94   19.88
  10 -11   7    8.36   16.57
  11  10   7    5.58   16.65
 -11 -10  -7    5.48   18.16
 -10  11   7   20.17   16.09
  11 -11   0  -14.25   15.45
 -11  11   0   -1.60   13.78
  11 -11   0    3.81   12.73
  11  11   0   -0.95   11.68
 -11 -11   0   -0.35    6.60
 -11 -11   0   -0.89   11.15
 -11  11   0  -16.06   11.86
 -11 -11   0  -10.52   11.57
  11  11   0  -14.85   11.91
  11  11   0    0.95    7.73
  11 -11  -2   -3.85   12.56
 -11 -11   2   -2.33    9.55
 -11  11  -2   -3.75   10.87
 -11 -11   2   -0.14    4.24
 -11 -11   2   -0.42    2.91
  11  11   2    7.00   10.93
  11  11   2   -3.56   10.63
  11 -11   2   -5.18   13.77
  11  11  -2    3.09   11.05
  11 -11  -2  -20.77   13.52
 -11 -11   2   -6.23   10.02
  11 -11  -2   24.12   13.86
 -11 -11  -2   16.34   12.81
  11  11  -2    1.46    9.87
 -11  11   2    9.00   12.88
  11  11  -2   -2.33    5.25
  11 -11   2   10.75   12.64
 -11  11   2    7.31   10.90
 -11 -11  -2  -10.84   10.99
 -11 -11  -4   32.30   14.83
 -11 -11   4   24.38    9.64
  11  11   4   32.05   14.85
 -11 -11  -4   28.95   13.11
 -11  11  -4   29.04   18.19
  11 -11   4   54.10   14.37
  11 -11   4   29.99   18.57
 -11 -11   4   38.50    9.15
 -11  11   4   43.54   11.47
  11 -11  -4   17.97   14.95
  11  11   4   44.14   15.73
 -11  11   4   38.69   14.59
 -11  11  -4   25.74    9.81
  11  11  -4   20.35    8.63
 -11 -11  -4   34.13   15.63
 -11 -11   4   28.06    9.05
 -11 -11   4   31.60   10.24
  11  11  -4    8.74    9.24
  11 -11  -4   35.30   12.70
 -11  11   6    2.75   19.30
  11 -11   6    0.71   16.05
 -11  11  -6   12.02   20.61
 -11  11  -6   23.48   19.93
  11  11  -6   -1.46   12.86
  11 -11   6  -28.83   19.09
  11 -11  -6  -13.70   17.85
  11  11   6   12.87   15.97
 -11 -11  -6    1.69   18.24
  11  11   6   -5.48   19.53
 -11 -11  -6    2.80   14.63
 -11  11   6    2.26   15.70
 -11 -11  -6   14.61   17.51
 -11 -11   6    8.89   13.92
 -12  11  -1  183.42   18.76
 -11 -12   1  212.46   14.75
  12 -11  -1  159.08   17.44
  12 -11  -1  206.22   17.17
 -11 -12   1  150.77    9.20
  12 -11   1  180.68   18.19
 -11 -12   1  133.88    9.56
  11  12   1  173.60   13.46
  11  12  -1  158.17   10.64
 -12  11  -1  164.05   15.16
  11  12  -1  177.59   14.99
 -11 -12  -1  155.93   15.90
 -11 -12  -1  172.13   13.09
  11  12   1  164.89   15.67
  11  12   1  172.49   13.48
  11  12  -1  142.52   15.12
  12 -11   1  210.05   17.44
 -11 -12   1  171.74   14.75
  12 -11   1  195.79   16.69
 -12  11   1  155.07   16.53
 -11 -12  -1  207.76   15.65
 -12  11   1  182.75   16.89
  11  12   3  -13.44   13.84
 -12  11  -3    7.64   17.08
 -12  11  -3  -17.26   10.68
 -11 -12   3   -4.04    8.01
 -12  11  -3    1.60   12.71
  12 -11   3    5.98   14.11
 -11 -12  -3  -16.27   12.72
 -11 -12  -3  -11.42   12.20
 -12  11   3   13.77   14.89
  12 -11  -3   -9.61   14.40
  12 -11  -3    0.48   13.14
  12 -11   3  -15.01   16.71
  11  12  -3   -0.70    9.62
 -12  11   3    2.95   11.20
 -11 -12   3    0.28    4.93
 -11 -12   3   18.16   10.37
 -11 -12   3   -5.73    5.35
  11  12   3    3.67   12.70
  12 -11   3   23.86   13.65
  12 -11  -5   26.65   12.25
  12 -11   5   25.82   15.20
 -12  11  -5   15.76    8.86
 -12  11  -5   14.55   19.57
  11  12   5   30.22   16.46
 -11 -12   5   18.46    8.89
 -11 -12   5   11.37   11.01
 -11 -12  -5   19.44   14.46
  12 -11  -5    3.83   17.22
 -11 -12   5   25.61   10.21
 -11 -12   5   14.14   11.44
 -11 -12  -5   22.81   16.93
  11  12   5   19.01   18.30
 -12  11   5    8.88   10.86
 -12  11   5    0.82   17.12
 -11 -12  -5    1.61   16.52
  11  12  -5    9.03   11.30
  11  12  -5   16.89    8.72
 -12  11   5  -17.46   15.91
  12 -11   7   -7.34   17.90
 -12  11   7   11.43   16.88
 -11 -12  -7   34.05   16.56
  11  12   7   12.71   17.77
  10  12   0   44.25    7.84
  12 -10   0   57.00   15.25
  12 -10   0   38.39   13.02
 -10 -12   0   44.70    8.25
 -10 -12   0   59.32   11.78
  10  12   0   48.43   12.10
 -10 -12   0   62.41   12.26
  10  12   0   52.40   12.50
 -12  10   0   79.52   15.04
 -12  10   0   51.93   13.01
  12 -10   2   66.06   16.78
  12 -10   2   73.07   14.64
  12 -10   2  114.72   15.68
  12 -10  -2  118.84   14.68
 -10 -12   2   99.60   11.08
 -10 -12  -2   92.60   12.58
  10  12  -2   78.05   12.45
  10  12   2   79.38   12.45
 -12  10   2  113.32   15.04
  10  12  -2   84.18   11.58
  12 -10  -2   78.25   14.62
 -10 -12   2   89.77    6.75
 -10 -12   2   98.36   12.08
 -12  10   2  101.31   12.82
 -12  10  -2   96.16   13.39
 -12  10  -4  573.49   32.46
  12 -10   4  576.95   36.24
 -10 -12  -4  558.39   35.30
 -10 -12   4  555.98   32.03
  10  12   4  645.35   36.12
 -10 -12   4  575.58   32.79
  10  12  -4  624.76   32.05
  12 -10  -4  663.27   35.95
 -10 -12   4  554.20   30.91
  12 -10   4  680.08   35.49
  12 -10  -4  627.87   35.90
 -12  10   4  593.36   32.47
 -10 -12  -4  567.65   35.68
 -12  10  -4  568.82   37.93
  10  12   4  558.85   34.96
 -10 -12   4  601.14   31.69
 -10 -12  -4  658.38   35.07
  12 -10  -4  637.66   33.40
  12 -10   6    3.68   15.80
 -12  10  -6  -18.87   20.64
  10  12   6   -9.16   15.80
 -12  10   6   12.75   18.94
 -10 -12  -6   13.43   17.47
  12 -10  -6   -2.53   18.32
  10  12   6   38.59   19.42
  10  12  -6   -1.01   13.65
 -10 -12   6  -26.85   14.18
 -10 -12  -6   32.15   18.50
 -12  10   6  -25.48   16.08
 -10 -12  -6  -19.98   14.64
 -12  10  -6  -15.44   18.71
 -12   9  -1    6.49   11.87
   9  12  -1    3.35   10.75
   9  12   1   10.83   10.65
 -12   9  -1   24.52   14.89
  12  -9  -1   26.09   13.72
   9  12   1   15.23   11.71
  -9 -12   1   33.52    6.47
  -9 -12   1   23.00    9.67
  -9 -12  -1   19.64    9.37
 -12   9   1   12.04   12.60
  -9 -12   1   21.29    6.90
  12  -9  -1   20.02   12.24
   9  12  -1   21.40   11.50
  12  -9   1   12.10   15.17
   9  12  -1   17.66    4.14
  12  -9   1   28.16   13.12
  -9 -12  -1   28.30   11.34
  -9 -12  -1   19.73   12.19
 -12   9   1    8.01   12.61
  -9 -12   1   14.69   11.15
  12  -9   1   12.65   12.59
  -9 -12  -3   44.34   13.63
  12  -9  -3   63.50   12.61
  -9 -12  -3   65.07   12.37
  12  -9   3   74.47   13.55
 -12   9  -3   39.20   17.22
 -12   9  -3   49.42   15.70
   9  12   3   58.93   13.29
   9  12   3   74.36   14.32
  12  -9  -3   75.50   14.56
  -9 -12   3   61.33    8.43
  -9 -12   3   75.71    8.46
  12  -9   3   88.45   15.22
 -12   9  -3   66.76   11.26
  -9 -12  -3   71.92   14.70
  -9 -12   3   62.98   11.52
   9  12  -3   73.53   10.65
 -12   9   3   54.60   10.54
 -12   9  -3   39.73   13.12
  -9 -12   3   51.41    4.87
  12  -9  -5   22.02   10.68
  12  -9   5   25.67   15.19
  -9 -12   5   17.25    7.25
 -12   9  -5   24.73   19.46
 -12   9   5   50.80   17.82
 -12   9  -5   16.00    9.17
  -9 -12   5   22.67   12.21
   9  12   5   -2.05   14.88
  -9 -12  -5   10.48   15.77
  -9 -12   5   32.92   10.24
  -9 -12  -5   26.75   16.76
  12  -9  -5   57.50   16.95
  -9 -12  -5   23.71   14.10
 -12   9   5   39.85    9.64
   9  12   5   14.08   17.24
   9  12  -5   20.60    9.92
 -12   9   5   32.51   14.37
   9  12  -5   14.77   11.75
  -9 -12   5   18.19   12.14
 -12   9  -7   22.45   21.53
   9  12   7  -26.85   17.39
  12  -9   7   19.75   17.39
  12  -9  -7  -19.14   20.32
  -9 -12  -7   -5.22   17.46
 -12   9   7  -14.50   21.93
 -12   9   7   14.56   16.26
  -9 -12  -7   -1.54   15.36
  12  -8   0  251.01   21.60
  -8 -12   0  296.44   19.68
  -8 -12   0  257.80   16.83
 -12   8   0  267.24   19.34
 -12   8   0  300.20   21.07
   8  12   0  259.95   20.08
  -8 -12   0  296.98   18.80
   8  12   0  278.42   18.92
  12  -8   0  299.53   20.55
   8  12   0  285.32   15.88
 -12   8   2   70.36   10.67
 -12   8  -2   44.97   12.09
  12  -8   2   66.62   16.46
   8  12   2   53.14   12.35
  -8 -12   2   60.53    7.71
  12  -8  -2   62.70   13.18
   8  12  -2   40.54   10.44
   8  12  -2   56.90   10.99
  12  -8   2   53.52   14.06
  12  -8  -2   42.17   12.60
 -12   8  -2   54.26   11.47
  12  -8   2   48.32   13.17
  -8 -12   2   60.59   11.50
  -8 -12   2   63.89    8.94
  -8 -12  -2   43.86   11.94
   8  12   4  163.17   16.76
  12  -8   4  173.36   16.99
  -8 -12   4  197.36   15.55
 -12   8  -4  163.62   20.96
  -8 -12   4  155.81   11.26
 -12   8   4  161.01   18.46
  12  -8  -4  130.50   13.33
  12  -8  -4  162.35   17.64
  -8 -12   4  172.44   14.12
  12  -8   4  134.69   18.40
  -8 -12  -4  167.62   17.77
 -12   8   4  171.62   12.54
 -12   8  -4  155.70   18.73
   8  12   4  148.24   18.81
  -8 -12  -4  171.84   16.43
  12  -8  -4  169.19   18.07
   8  12  -4  146.04   13.90
   8  12  -4  174.18   13.68
  -8 -12  -4  164.22   17.61
  -8 -12   4  174.09   11.52
 -12   8  -6   19.53   20.42
  12  -8   6   22.86   16.53
   8  12   6    9.94   19.19
  -8 -12  -6   -1.39   14.18
  12  -8  -6    7.10   17.59
  -8 -12  -6  -25.78   18.59
  -8 -12   6   -6.87   14.48
   8  12  -6    9.36   14.02
 -12   8   6   27.28   15.34
 -12   8   6    3.48   18.48
  -8 -12   6  -11.22   10.05
 -12   8   6  -49.20   19.97
   8  12   6  -11.70   16.08
  -8 -12  -6   -0.78   16.49
 -12   7  -1   96.56   13.67
 -12   7  -1   97.73   16.20
   7  12  -1   84.58   12.31
  12  -7  -1  100.30   14.28
  12  -7   1   78.66   16.44
   7  12   1   97.23   12.62
   7  12  -1   96.40   11.08
  12  -7   1   81.06   13.96
  -7 -12  -1  100.52   11.56
  12  -7   1   91.10   13.67
  -7 -12   1   92.61   11.09
   7  12   1   82.55   14.07
  -7 -12   1   95.07   12.67
  -7 -12  -1   89.72   13.62
  -7 -12  -1  102.12   12.09
 -12   7   1   93.88   13.17
 -12   7  -3   16.67   14.45
  -7 -12   3    1.45    6.58
  12  -7  -3   22.48    9.95
 -12   7  -3   18.52   16.43
  -7 -12   3    4.04    9.04
  12  -7   3    5.22   13.30
 -12   7   3   -3.06    8.29
   7  12  -3    3.11    7.99
   7  12   3  -23.52   13.16
 -12   7  -3   -5.13   11.88
  12  -7  -3   23.05   12.65
 -12   7  -3   20.02   10.20
 -12   7   3  -14.47   13.69
  12  -7  -3   32.01   13.14
  -7 -12  -3   -4.62   12.34
  -7 -12   3    2.39    2.80
   7  12  -3   -1.12    9.76
  -7 -12  -3   14.65   11.51
  12  -7   3   -5.22   13.19
  -7 -12  -3   15.78   13.30
   7  12   3   -8.52   12.02
  -7 -12   3    7.23   11.43
  -7 -12   5   69.38   13.37
  12  -7  -5   65.35    8.28
  12  -7   5   43.26   15.61
 -12   7   5   75.57   17.11
 -12   7  -5   27.05   16.52
 -12   7  -5   42.51   19.32
  -7 -12   5   68.36   13.89
  -7 -12  -5   63.73   17.06
 -12   7  -5   54.86   10.35
   7  12   5   63.26   15.23
  12  -7   5   39.98   17.65
  -7 -12   5   63.55   10.17
  12  -7  -5   60.97   16.48
  -7 -12   5   32.41    4.81
   7  12   5   63.16   18.35
  -7 -12  -5   72.69   15.13
   7  12  -5   49.99   11.02
  -7 -12  -5   32.96   14.39
   7  12  -5   32.94   12.80
  -7 -12  -7  -13.69   15.85
 -12   7  -7  -18.34   20.72
   7  12  -7   28.59   16.64
  12  -7  -7   -1.72   18.53
  12  -7   7   26.77   17.89
  -7 -12   7   26.01   16.96
 -12   7   7    9.29   15.41
 -12   7   7   37.46   20.50
  -7 -12  -7  -11.43   17.34
   7  12   7   -0.78   16.58
  -6 -12   0  537.44   31.63
   6  12   0  590.57   32.40
   6  12   0  623.19   33.33
 -12   6   0  587.59   33.75
  12  -6   0  550.69   34.19
  -6 -12   0  607.87   33.22
  -6 -12   0  655.11   32.18
   6  12   2  119.43   13.89
  -6 -12  -2   98.96   13.42
  12  -6  -2  103.27   12.55
 -12   6  -2  107.68   12.90
 -12   6  -2  112.47   13.72
  12  -6   2   84.55   14.31
  12  -6  -2  126.75   13.47
  -6 -12   2  112.52   10.92
 -12   6  -2  133.12   14.60
   6  12  -2  104.26   12.46
 -12   6   2  117.95   15.33
   6  12  -2   84.50   10.88
  -6 -12  -2  115.95   14.27
  -6 -12   2  115.02    9.53
  -6 -12   2  110.24   13.37
 -12   6   2  100.66   11.50
  12  -6   2  107.73   13.96
  12  -6  -2  132.09   15.34
  12  -6   4   43.01   13.68
  12  -6  -4   28.40    7.92
 -12   6  -4   41.55   17.50
   6  12   4   52.36   13.35
  -6 -12   4   26.10   10.84
  -6 -12  -4   48.20   14.60
  -6 -12  -4   26.35   13.70
  -6 -12   4   46.52    7.70
  12  -6  -4   27.64   13.11
  12  -6   4   24.76   14.72
   6  12  -4   43.58   11.53
  -6 -12   4   34.90   13.06
 -12   6  -4   46.19   15.77
 -12   6   4   10.26   15.22
  -6 -12  -4   39.17   12.57
   6  12   4   45.61   14.50
 -12   6   4   31.31    6.99
  -6 -12   4   18.89    5.49
   6  12  -4   24.83   11.16
  12  -6  -4   56.06   13.83
 -12   6  -4   20.05    9.80
  12  -6   6   14.89   19.20
 -12   6   6   -9.21   18.20
 -12   6  -6   28.38   20.21
   6  12  -6   16.00   14.08
 -12   6  -6   18.61    9.21
   6  12   6  -23.82   15.82
  12  -6  -6   15.40   16.57
  -6 -12   6    4.82   14.86
   6  12   6   -4.46   18.81
   6  12  -6    5.12   11.36
 -12   6   6   32.53   18.77
  -6 -12   6   18.42    9.61
  12  -6   6    2.98   16.42
  -6 -12  -6    1.37   14.44
  -6 -12  -6   -2.45   18.11
  -6 -12  -6    5.83   15.02
 -12   6   6    1.30   13.95
  -5 -12  -1   15.67   10.66
 -12   5   1    7.17   11.33
 -12   5  -1   10.00   11.55
  -5 -12   1   19.69    8.31
   5  12  -1    5.07    8.86
 -12   5  -1  -14.63   14.44
  -5 -12  -1   12.96   10.31
   5  12   1    4.33   10.68
  12  -5   1   -7.47   11.77
  12  -5  -1  -30.74   13.41
   5  12   1    8.77   11.71
   5  12  -1   29.50   11.68
  -5 -12   1   16.36   11.24
  12  -5  -1    2.37   11.62
  12  -5   1   11.43   14.41
  -5 -12   3   43.63   12.64
  12  -5  -3   45.24   12.77
  12  -5   3   32.75   12.55
  -5 -12   3   29.41    3.67
 -12   5  -3   39.55   16.32
 -12   5  -3   40.33   14.64
  -5 -12   3   42.41    5.58
  -5 -12   3   40.54   10.16
  12  -5   3   37.74   14.02
   5  12   3   36.81   12.39
   5  12  -3   17.88    7.54
  -5 -12  -3   20.00   13.28
  12  -5  -3   37.41   12.12
  -5 -12   3   34.76    4.03
 -12   5   3   36.23   13.77
   5  12   3   46.20   13.49
  -5 -12  -3   66.25   12.33
 -12   5  -3   43.40   11.10
  -5 -12  -3   40.89   12.15
   5  12   3   36.12   13.15
 -12   5   3   36.83    7.14
   5  12  -3   22.82   10.85
  12  -5  -3   31.23    8.53
  -5 -12  -5   33.71   14.24
 -12   5  -5   37.42   19.06
  12  -5   5   57.88   14.97
  12  -5   5   27.08   15.71
 -12   5  -5   70.20   11.06
  -5 -12   5   42.37   13.75
  -5 -12   5   44.19    8.51
  -5 -12  -5   51.85   16.45
  -5 -12  -5   60.51   14.11
 -12   5   5   51.76   16.82
   5  12  -5   44.92   13.68
   5  12   5   77.01   18.29
 -12   5  -5   59.36   17.07
  12  -5  -5   54.55   15.41
 -12   5   5   49.76   16.59
   5  12   5   73.26   14.54
   5  12  -5   48.98   11.83
  -5 -12   5   23.26   13.91
   5  12  -7   19.57   17.12
  12  -5   7    1.70   17.84
   5  12   7  -18.92   16.46
 -12   5  -7    3.84   19.78
  12  -5  -7   42.35   17.97
  -5 -12   7   -0.73   16.80
 -12   5   7   41.48   20.35
 -12   5   7   15.99   15.03
 -12   5   7   33.72   19.36
  -5 -12  -7   14.58   16.14
  -5 -12  -7   24.17   16.01
  -4 -12   0   -1.77   10.01
  -4 -12   0   25.55    9.82
  12  -4   0   13.87   10.62
   4  12   0   20.85    6.46
  12  -4   0   25.53   12.82
 -12   4   0   30.78   13.07
   4  12   0   22.36   10.40
  -4 -12   0   15.05   11.99
   4  12   0   20.29   12.41
  12  -4   0   48.84   13.39
  12  -4   2   83.44   13.04
 -12   4   2   77.12   13.85
  -4 -12   2   81.88    7.86
   4  12   2   81.16   13.10
  -4 -12   2   70.73   12.87
 -12   4  -2   59.39   13.22
  -4 -12  -2   43.89   12.86
  12  -4  -2   87.23   12.98
 -12   4  -2   43.58   11.78
   4  12   2   65.19   12.85
  -4 -12  -2   41.01   13.00
  12  -4  -2   63.91   11.62
 -12   4  -2   58.27   11.58
   4  12  -2   79.00   11.69
  -4 -12   2   74.51   10.62
  12  -4  -2   60.61   10.41
   4  12  -2   61.19    8.79
 -12   4   2   56.41    9.57
  12  -4   2   42.07   12.81
 -12   4  -4  108.94   11.54
  12  -4  -4  102.44   14.44
  12  -4   4   85.03   14.27
   4  12  -4  120.16   12.56
 -12   4  -4   80.17   16.22
  -4 -12   4  115.16    8.38
  -4 -12  -4  108.90   15.58
 -12   4   4   70.08   15.43
   4  12   4  102.22   14.06
  -4 -12   4  126.10   14.43
  -4 -12   4  104.09   12.97
   4  12  -4   84.92   12.46
   4  12   4   88.84   15.97
  -4 -12  -4   92.32   14.52
  -4 -12   4   98.82    8.25
  -4 -12  -4  108.68   13.22
  12  -4   4  106.31   15.47
 -12   4  -4  113.52   19.00
  12  -4  -4  119.60   14.54
  -4 -12  -6  -26.80   18.03
   4  12   6   26.54   18.56
 -12   4   6    3.62   13.67
 -12   4  -6  -10.89   19.16
 -12   4   6    2.40   17.84
  -4 -12   6   17.12   11.11
  -4 -12  -6    4.12   15.10
   4  12  -6  -26.61   15.10
  -4 -12   6   -6.96   15.07
  12  -4  -6    4.04   14.99
 -12   4  -6  -33.39   19.30
   4  12   6    6.83   14.78
  -4 -12  -6   21.11   14.76
 -12   4   6   -5.03   16.98
   4  12  -6   -3.08   11.88
 -12   4  -6    6.95    9.38
  12  -4   6  -16.51   16.45
  12  -4   6   -4.32   17.42
  -4 -12   8    2.62   18.66
   3  12   1   35.12   10.73
  12  -3   1   42.38   11.35
 -12   3   1   34.83   11.46
  12  -3  -1   38.88   13.11
   3  12  -1   38.33    9.08
 -12   3  -1   33.46   14.35
 -12   3  -1   19.55   11.57
  -3 -12  -1   40.73   11.42
   3  12   1   41.91    9.05
  -3 -12  -1   39.28    9.97
   3  12  -1   35.49   11.99
  -3 -12   1   37.98    8.31
 -12   3   1   33.55   12.27
  -3 -12   1   47.37   11.73
  -3 -12   3    0.38   10.69
  -3 -12   3  -13.65   13.19
  -3 -12   3    2.26    4.73
 -12   3  -3   -7.84   13.17
 -12   3  -3    0.68   15.86
  12  -3  -3   -7.84   11.36
  12  -3   3  -16.01   13.05
   3  12   3    4.39   10.52
   3  12   3    2.64   12.40
  -3 -12  -3  -27.25   13.45
  12  -3  -3  -10.17   10.96
   3  12  -3   -6.34    5.57
  12  -3   3   -6.03   11.93
 -12   3   3    4.53   13.07
  -3 -12  -3   -1.56   12.81
   3  12   3   -0.53   12.42
   3  12  -3   -3.27   11.18
 -12   3   3    0.93    4.67
  -3 -12  -3  -17.69   11.10
  -3 -12   3    0.85    4.65
  -3 -12   5   12.89   14.52
 -12   3  -5   18.75   10.44
  -3 -12  -5   33.52   13.58
 -12   3  -5   27.16   16.54
  -3 -12   5   13.68   13.70
  12  -3   5   33.88   15.58
  -3 -12  -5   34.65   16.10
  12  -3  -5   23.82   14.16
   3  12   5   46.98   17.50
 -12   3   5   31.41   15.65
 -12   3   5   24.38   14.80
  -3 -12  -5   24.00   14.36
 -12   3  -5   31.16   17.89
  12  -3   5   39.64   13.95
   3  12  -5   10.88   12.34
   3  12   5   31.24   13.43
  12  -3   5  -13.04   11.62
   3  12  -5    5.45   13.62
 -12   3   7   35.93   19.36
  12  -3  -7   22.87   17.08
   3  12   7   77.80   16.35
  -3 -12   7   13.79   17.71
   3  12  -7   80.61   18.68
  -3 -12  -7   44.37   15.73
  12  -3   7   48.01   18.35
 -12   3  -7   41.49   20.91
 -12   3   7   41.65   19.91
 -12   3   7   43.73   14.96
 -12   2   0   72.26   13.51
  12  -2   0   61.19   10.73
 -12   2   0   68.54   12.97
   2  12   0   98.58    8.39
   2  12   0   74.73   10.87
  12  -2   0   81.05   13.18
   2  12   0   90.87   12.78
  -2 -12   0   78.51   12.73
  -2 -12   0   79.76   10.53
 -12   2   0   78.90   12.29
 -12   2  -2   45.67   11.31
   2  12   2   61.32   13.61
 -12   2  -2   59.74   15.52
  -2 -12   2   62.38    7.68
   2  12  -2   53.27    7.68
  12  -2   2   48.19   12.18
   2  12   2   53.85   11.37
  -2 -12  -2   55.89   12.58
  12  -2  -2   51.52   12.52
   2  12   2   61.31   12.97
 -12   2   2   49.10   12.57
 -12   2   2   63.96    9.21
  -2 -12   2   41.14    4.06
 -12   2  -2   68.89   12.50
  12  -2  -2   69.14    9.97
  -2 -12  -2   67.50   12.98
   2  12  -2   69.14   12.20
  -2 -12   2   73.26   11.74
  -2 -12   2   67.79   13.12
  -2 -12   4   17.48   12.35
 -12   2   4    6.76   11.80
  -2 -12   4   18.30   13.68
 -12   2  -4    8.46   10.21
  12  -2   4   27.50   13.15
   2  12  -4   13.73   11.89
  -2 -12   4    8.01    7.56
 -12   2  -4   -1.23   14.78
  12  -2   4   22.67   14.06
  12  -2  -4    1.06   12.11
  12  -2  -4   19.46   11.97
  -2 -12  -4    4.89   13.61
   2  12   4   11.50   14.74
  -2 -12  -4    9.41   13.01
 -12   2   4    5.10   14.23
   2  12   4    3.80   11.73
   2  12  -4   14.46   11.68
  12  -2   4    4.00   10.77
 -12   2  -4    3.83   15.91
  -2 -12  -4   14.12   11.43
   2  12   6   -2.49   17.38
 -12   2   6   12.24   17.65
  -2 -12   6    7.55   11.18
 -12   2  -6    9.37   10.34
   2  12  -6  -12.81   15.95
 -12   2  -6  -27.40   20.10
  12  -2   6   -0.98   12.11
  -2 -12  -6  -28.69   14.98
  12  -2  -6  -36.27   14.51
  12  -2   6  -24.08   18.25
   2  12   6    9.67   18.61
  -2 -12   6   -9.36   15.23
   2  12   6   45.65   15.47
  12  -2   6  -11.36   16.21
  -2 -12  -6    5.21   15.03
 -12   2  -6   19.47   17.96
 -12   2   6   -8.74   16.62
   2  12  -6   10.52   13.14
   2  12   8    9.62   17.00
  12  -2  -8    1.63   18.14
 -12   2   8    5.54   20.99
 -12   1  -1   -3.79   11.33
  -1 -12   1    1.00    8.24
 -12   1  -1    1.13   11.62
  -1 -12  -1    6.13    9.76
  -1 -12   1   -2.41    5.15
   1  12   1  -11.14   10.37
  -1 -12  -1    2.63   12.27
 -12   1  -1   -2.36   10.75
  12  -1  -1   30.88   12.11
 -12   1  -1    3.90   14.18
   1  12   1   -5.18    9.05
   1  12  -1   -4.19    7.88
 -12   1   1   -4.76   11.21
   1  12  -1    2.42   11.49
  -1 -12  -1   -6.01   12.54
  12  -1   1   -7.50   11.73
   1  12  -1    1.90    4.85
  -1 -12   1    4.17   11.80
  12  -1   1   -0.63   10.02
 -12   1   1  -15.67   11.03
  12  -1  -3   58.55   12.72
  -1 -12   3   61.86    7.21
   1  12   3   46.26   12.45
  -1 -12   3   56.62   14.38
  12  -1  -3   58.63   10.37
 -12   1  -3   37.14   15.33
 -12   1  -3   67.71   13.93
  12  -1   3   47.82   12.97
  -1 -12   3   44.04   11.97
   1  12   3   39.66   13.77
  12  -1   3   63.87   11.84
  -1 -12  -3   48.28   13.06
   1  12   3   46.39   12.58
  -1 -12  -3   51.47   11.87
 -12   1   3   43.71   12.75
  -1 -12  -3   50.02   12.19
   1  12  -3   59.90   12.25
   1  12  -3   35.88    4.99
 -12   1  -3   64.28   11.48
   1  12   3   51.32   13.26
   1  12   5   23.38   15.00
  -1 -12   5   23.35   14.44
  12  -1  -5   24.32   12.85
  -1 -12   5   21.66   15.61
   1  12  -5   15.78   14.45
  -1 -12  -5   44.03   13.67
   1  12   5   15.87   16.23
 -12   1  -5   14.74   10.56
 -12   1   5   58.71   14.45
  12  -1   5  -27.16   12.10
 -12   1   5   28.44   15.32
  -1 -12   5   20.79    9.88
 -12   1  -5   18.57   17.55
  12  -1   5   -5.06   15.82
  12  -1   5    3.97   14.38
   1  12   5   44.05   13.27
  -1 -12  -5   15.52   15.36
   1  12  -5   21.51   13.42
 -12   1  -5   41.89   16.17
  -1 -12  -5   12.89   13.67
  12  -1  -7   -4.11   15.74
 -12   1   7   -2.26   13.83
   1  12  -7   -0.81   17.99
  -1 -12   7  -10.63   13.39
 -12   1   7  -23.80   18.51
   1  12   7   -3.65   15.24
  -1 -12  -7  -12.42   15.00
 -12   1  -7   52.09   20.71
  -1 -12   7    0.80   17.68
 -12   1   7   -8.51   17.83
 -12   0   0    3.79   11.37
  12   0   0   10.24    8.62
   0 -12   0   10.19   10.10
 -12   0   0    2.35   12.17
   0  12   0   19.08    7.97
  12   0   0   14.58   11.53
   0  12   0    7.74   11.55
   0 -12   0   18.20    7.71
   0  12   0    5.11    9.54
   0 -12   2   41.85   13.92
  12   0   2   40.67   11.76
 -12   0   2   31.57    8.36
 -12   0  -2   27.76   11.77
   0  12   2   61.28   12.02
  12   0  -2   46.12    9.00
   0  12  -2   69.94   12.25
   0 -12  -2   34.55   12.75
  12   0  -2   42.56   12.14
   0  12  -2   52.65    6.99
  12   0   2   53.12   11.63
   0  12   2   69.37   12.74
   0 -12   2   64.04   12.45
   0 -12   2   52.28    7.14
   0 -12  -2   43.31   12.03
 -12   0   2   44.03   11.88
 -12   0  -2   40.45   11.78
  12   0   2   41.05   12.41
   0 -12  -4   22.00   12.24
   0  12   4   53.35   12.74
 -12   0   4   17.97   13.54
   0 -12   4   39.65    8.94
   0 -12   4   30.66   14.74
 -12   0  -4   31.31   16.24
 -12   0  -4   49.53   10.97
  12   0  -4   45.06   12.40
  12   0   4   28.08   11.60
 -12   0   4   38.34   11.78
   0  12   4   46.84   13.91
  12   0   4   35.71   14.17
   0  12  -4   37.01   13.80
   0 -12   4   32.89   12.81
   0  12   4   38.58   15.02
   0  12   4   47.18   13.21
 -12   0  -4   21.61   14.28
  12   0  -4   27.11   10.74
   0 -12  -4   22.57   12.47
   0 -12  -4   49.78   14.35
   0  12  -4   35.91   13.83
   0 -12   6    5.84   11.92
 -12   0  -6  -16.67   18.58
  12   0   6   -7.61   16.38
   0  12  -6    4.99   16.88
   0  12   6   -5.79   17.22
  12   0  -6  -12.98   13.64
  12   0   6   -6.85   19.13
   0 -12   6   21.87   15.85
   0 -12  -6   30.96   14.68
 -12   0   6   19.66   16.79
 -12   0   6   18.92   15.10
  12   0   6    9.66   13.02
   0  12   6   -9.94   14.27
 -12   0  -6   13.82   19.58
   0  12  -6   18.43   14.32
 -12   0  -6    5.84   10.77
  12   0  -8   21.44   16.95
 -12   0   8    8.81   20.29
   0  12   8   -3.16   16.69
   1 -12   1  282.07   15.71
 -12  -1  -1  212.34   17.09
  12   1   1  266.55   17.20
   1 -12  -1  289.63   19.37
 -12  -1  -1  264.75   19.69
 -12  -1   1  274.03   18.02
 -12  -1  -1  283.24   18.45
  12   1   1  265.96   18.80
  12   1   1  241.63   19.04
   1 -12  -1  287.13   19.50
 -12  -1   1  288.02   19.77
  -1  12  -1  261.99   19.36
 -12  -1   1  254.24   17.58
  -1  12   1  261.81   17.52
  -1  12  -1  287.71   15.47
   1 -12   1  267.38   20.09
  -1  12   1  233.76   19.56
  -1  12  -1  275.14   16.36
  -1  12   1  269.85   18.14
   1 -12  -1  243.84   17.83
  12   1  -1  302.68   19.11
   1 -12   3    8.77   13.80
  12   1   3    6.84   11.04
  -1  12   3   -8.73   13.24
  12   1   3    4.73   11.45
  -1  12   3   -0.49   11.65
  -1  12   3    4.42   12.50
  12   1  -3    7.50   10.94
   1 -12  -3   -2.12   13.37
  12   1   3  -12.11   11.41
  -1  12  -3    1.68    3.51
   1 -12   3    6.99   12.13
 -12  -1  -3   -0.85   10.62
  -1  12   3    9.46   12.05
   1 -12  -3  -19.96   11.25
   1 -12  -3   -5.90   11.86
 -12  -1   3   -5.12   11.62
 -12  -1  -3    9.68   12.92
  12   1  -3   -3.79    8.54
  -1  12  -3   11.76   13.04
   1 -12   3   -7.15    7.75
  -1  12   5   26.67   13.75
   1 -12   5   11.49   15.99
  -1  12  -5   38.77   14.35
   1 -12   5   28.59   14.86
  12   1  -5   20.13   11.59
 -12  -1   5   57.75   15.81
  12   1   5   25.81   15.90
  -1  12   5   18.54   14.85
 -12  -1   5   46.32   13.53
  12   1   5   22.63   13.10
 -12  -1  -5   20.85   11.25
   1 -12  -5    3.32   12.91
 -12  -1  -5   46.70   16.35
  -1  12  -5   10.61   14.44
   1 -12   5   56.83   10.71
  12   1  -7   15.43   15.20
  -1  12  -7   -4.24   18.51
   1 -12   7  -24.21   18.15
 -12  -1   7  -35.37   17.60
   1 -12   7    1.68   13.49
 -12  -1   7   14.61   18.73
  12   1   7   -9.59   13.98
   1 -12  -7  -11.58   14.31
  -1  12  -7   27.12   15.54
  -1  12   7   -0.72   14.88
 -12  -1  -7   15.05   20.60
 -12  -2   0  122.20   13.03
  12   2   0  128.75   10.17
   2 -12   0  132.85   11.34
  12   2   0  142.07   13.39
  -2  12   0  137.24   11.93
  -2  12   0  129.94   12.41
   2 -12   2   38.16    8.08
  12   2   2   62.52   12.60
 -12  -2   2   52.86    8.08
  -2  12  -2   53.40    7.58
  12   2   2   50.57   12.30
  -2  12  -2   42.30    7.29
  12   2   2   35.89   11.20
 -12  -2   2   22.61   12.26
  -2  12   2   51.41   12.07
  12   2  -2   34.71    7.01
  12   2  -2   35.57   11.28
   2 -12  -2   50.83   13.02
  -2  12   2   44.26   12.64
 -12  -2   2   34.40   10.92
   2 -12   2   39.28   13.68
   2 -12  -2   55.35   12.59
 -12  -2   2   55.98    6.41
   2 -12   2   62.14   13.19
  -2  12  -2   44.71   13.30
 -12  -2  -2   27.32   11.80
 -12  -2  -2   43.34   11.84
  -2  12  -4   32.15   13.86
   2 -12   4   48.57   10.07
  -2  12   4   80.33   13.80
 -12  -2  -4   82.30   14.72
   2 -12   4   49.34   13.90
  12   2  -4   59.53   12.52
  12   2  -4   51.68   10.33
  -2  12   4   74.94   15.10
 -12  -2   4   56.52   11.18
  12   2   4   51.67   14.20
  -2  12   4   58.18   12.85
 -12  -2   4   66.22   13.88
  12   2   4   45.70   13.12
 -12  -2  -4   44.40   11.70
   2 -12  -4   58.33   13.14
   2 -12   4   75.85   17.32
  -2  12  -4   59.47   15.21
   2 -12  -6    4.88   17.24
 -12  -2  -6   15.75   11.15
  -2  12   6  -18.64   14.74
  12   2   6   11.98   19.15
  -2  12  -6  -30.61   17.52
 -12  -2  -6   -9.92   18.05
  12   2  -6   -6.86   12.55
   2 -12   6  -21.55   16.02
   2 -12   6  -20.87   12.43
 -12  -2   6   -7.15   14.74
 -12  -2   6  -29.56   16.51
  -2  12   6  -13.18   18.27
  12   2   6  -19.15   15.80
   2 -12  -6   -2.32   13.04
 -12  -2  -6   44.03   20.18
  12   2   6   23.14   13.77
  -2  12   6  -30.81   18.42
  -2  12  -6    5.83   15.21
  -2  12   8   11.76   16.48
 -12  -2   8   -1.79   20.12
  12   3   1  106.12   13.23
  12   3  -1   82.11    6.86
 -12  -3  -1  106.76   11.10
  -3  12  -1  140.03   10.70
  -3  12   1  114.64   12.78
 -12  -3  -1   96.00   12.34
  -3  12   1  134.78   12.72
  12   3   1  102.12   10.73
   3 -12  -1  108.56   12.16
   3 -12   1   96.72   15.58
   3 -12   1  127.83   10.73
  12   3  -1  114.34   12.91
   3 -12  -1   92.12   13.54
  -3  12   1  116.34   13.32
 -12  -3   1  111.00   14.04
  -3  12  -1  115.71   14.54
 -12  -3   1  105.20   11.83
  -3  12  -1  124.02   10.46
   3 -12   3   10.18   14.91
  -3  12  -3    1.75    4.44
  -3  12  -3    2.71   14.03
  12   3  -3   -1.75    7.55
 -12  -3  -3    0.94   12.36
  -3  12   3   -3.57   12.98
 -12  -3   3   -1.55   11.06
 -12  -3   3   14.11   10.72
  12   3   3   11.96   11.75
   3 -12   3    6.58   11.99
 -12  -3   3   -8.11    8.02
  12   3   3  -10.19   11.70
  -3  12   3   -2.26   11.86
  -3  12   3   19.17   11.64
   3 -12  -3   17.20   11.30
  12   3  -3  -11.26   10.69
  12   3   3    3.72   11.40
   3 -12   3    0.86    8.92
 -12  -3  -3    4.95   10.72
   3 -12   5   36.10   17.32
 -12  -3  -5   -8.41   16.51
   3 -12   5    4.63   15.10
   3 -12   5   18.60   11.30
  12   3  -5   17.95   11.18
  -3  12   5   14.90   13.78
  -3  12   5   11.52   14.42
  12   3   5   10.05   15.66
   3 -12  -5   18.77   15.49
  -3  12  -5   17.91   15.20
 -12  -3   5    4.49   14.77
  12   3   5    8.68   13.48
 -12  -3  -5   33.61   11.78
 -12  -3   5   19.71   12.58
   3 -12  -5   29.08   12.56
  -3  12   5   -1.53   16.41
  -3  12  -5   24.55   16.21
  -3  12  -7   11.52   19.46
   3 -12   7    4.78   14.08
 -12  -3  -7   -4.12   20.44
  12   3  -7   -8.61   14.48
   3 -12   7   20.95   18.95
  12   3   7   13.94   14.72
  -3  12   7    0.72   15.69
 -12  -3   7   26.94   18.12
 -12  -3  -7   10.66   12.19
 -12  -3   7   10.56   16.71
  -3  12  -7   -2.11   17.13
  -4  12   0   51.10   10.37
 -12  -4   0   53.90   10.44
   4 -12   0   62.22   10.42
 -12  -4   0   51.34   12.15
  -4  12   0   36.33   10.47
  12   4   0   42.56   10.75
  12   4   0   59.19   12.79
  12   4   0   43.52    6.40
   4 -12   0   41.35   13.48
   4 -12   2    1.10   14.19
 -12  -4  -2   14.58   10.63
  12   4   2   21.77   11.39
  12   4   2  -11.19   10.51
  12   4  -2    4.37    3.86
  12   4  -2   27.16   10.00
   4 -12   2    1.38   12.55
 -12  -4  -2   19.18   10.95
  -4  12   2   16.76   10.80
   4 -12  -2   12.34   10.75
  -4  12  -2   19.12    6.58
  -4  12  -2    1.32    8.55
  12   4   2   17.35   11.51
 -12  -4   2   23.28    6.33
 -12  -4   2   -6.96   10.08
   4 -12   2   -1.38    9.04
  -4  12  -2   18.31   13.11
   4 -12  -2    4.76   11.92
 -12  -4   2   23.10   11.21
  -4  12   2   48.33   12.10
  12   4   4    7.84   13.06
   4 -12   4  -31.47   16.59
 -12  -4  -4   11.62   14.13
   4 -12  -4   -9.51   13.91
 -12  -4  -4    8.69   10.98
  12   4  -4   11.22    9.15
  12   4   4   -1.72   12.76
  -4  12   4   22.56   11.94
  -4  12   4    6.21   13.40
   4 -12   4    1.79   13.40
 -12  -4   4   16.16    9.80
 -12  -4   4    2.23   12.40
  -4  12  -4  -11.30   15.45
  -4  12  -4   -1.78   13.97
 -12  -4   4   -0.48   10.04
  -4  12   4   10.30   12.50
   4 -12  -4   -1.88   11.73
  12   4   4   23.04   13.81
   4 -12   4   -2.64   10.26
  -4  12  -6   -6.45   17.47
  12   4  -6  -22.29   12.96
 -12  -4  -6    1.62   12.31
   4 -12   6   13.18   13.43
  -4  12  -6  -18.83   18.13
 -12  -4   6   -5.07   12.80
 -12  -4  -6  -11.52   17.93
 -12  -4   6   -9.05   14.85
  -4  12   6    4.07   14.73
   4 -12   6   -8.60   16.51
   4 -12  -6  -16.47   18.02
  12   4   6   12.03   18.82
 -12  -4   6  -14.19   16.66
  -4  12   6    7.98   19.91
  12   4   6   13.70   14.40
   4 -12  -6    3.20   12.23
 -12  -4   8   11.03   19.11
 -12  -5   1    8.42    8.56
  12   5   1   -2.83   11.23
 -12  -5   1    4.74    9.06
 -12  -5   1   -6.44   11.25
 -12  -5  -1    7.80    8.51
   5 -12  -1    0.36   10.64
  12   5   1   22.56    8.65
  -5  12  -1    3.67    8.57
   5 -12  -1    4.48   12.27
  -5  12   1    1.87   11.05
   5 -12   1   -9.88   10.22
  12   5  -1    5.61   10.20
  -5  12   1   -3.65   10.58
  -5  12   1   12.33   11.75
  -5  12  -1    2.31    9.56
  12   5   3   17.97   12.50
   5 -12   3   30.70   16.09
   5 -12   3   11.45   12.90
  12   5   3   11.14   11.57
  -5  12   3   15.71   12.90
 -12  -5  -3   15.80   12.10
  12   5  -3    5.06    6.44
  12   5  -3   -1.34    9.52
  -5  12   3   10.01   12.32
 -12  -5   3    4.52    6.81
 -12  -5  -3   11.87   11.23
  -5  12  -3   16.71   14.47
 -12  -5   3   20.21   10.10
  12   5   3   -9.69   12.92
  -5  12   3   10.14   10.73
   5 -12  -3   19.94   11.38
  -5  12  -3    9.61    5.69
 -12  -5   3    0.89    9.77
 -12  -5   3    3.19    4.22
   5 -12  -3   25.08   13.22
   5 -12   3   18.64   10.40
  -5  12  -5   21.28   17.02
 -12  -5   5   10.31   12.25
   5 -12   5    1.88   11.93
  -5  12   5  -15.64   12.54
 -12  -5  -5    1.05   12.03
  12   5   5    9.41   14.90
 -12  -5  -5   -2.80   16.06
   5 -12   5   -1.39   15.73
 -12  -5   5   -2.88   12.06
  12   5  -5   15.40   10.86
  -5  12   5  -11.05   15.60
   5 -12  -5   11.01   16.05
   5 -12   5  -19.92   17.92
 -12  -5   5   18.10   13.80
  -5  12   5    1.55   16.83
  -5  12  -5   -2.80   15.40
  12   5   5   34.09   16.08
  12   5   5    3.16   14.24
   5 -12  -5   33.26   12.06
  -5  12   5   10.83   13.30
 -12  -5  -7  -15.32   13.38
 -12  -5   7   18.88   16.58
  12   5  -7  -15.50   14.44
   5 -12   7    3.19   15.12
 -12  -5   7  -14.43   17.21
  -5  12   7   -4.43   15.88
 -12  -5  -7    0.89   18.46
  -5  12  -7    3.85   17.94
   5 -12   7   -0.91   19.15
  12   5   7    0.73   15.48
   6 -12   0   85.28   15.58
 -12  -6   0   51.20    9.65
 -12  -6   0   48.07    5.63
  -6  12   0   63.87   14.42
 -12  -6   0   65.19   11.74
  12   6   0   53.59    5.46
  12   6   0   61.35   13.04
  -6  12   0   68.01   11.30
  12   6   0   58.85   10.56
 -12  -6   0   43.91   11.45
   6 -12   0   84.43   11.95
  -6  12   0   66.92   11.42
  -6  12  -2   75.00   10.51
   6 -12   2   37.85   13.98
  12   6   2   63.63   11.54
   6 -12  -2   64.32   12.35
  -6  12   2   60.49   13.45
 -12  -6  -2   53.57   11.34
 -12  -6   2   53.66    7.44
  12   6   2   69.18   11.45
  12   6  -2   54.41    9.99
   6 -12  -2   69.52   13.75
 -12  -6   2   73.20   11.14
   6 -12   2   31.47   15.04
 -12  -6  -2   62.67   12.26
  12   6   2   44.43   12.72
  -6  12   2   74.81   12.27
   6 -12   2   57.70   10.61
 -12  -6   2   56.45    9.66
   6 -12  -2   84.71   12.61
  -6  12  -2   47.97   14.89
  -6  12  -4   42.50   16.91
   6 -12   4    8.33   17.04
 -12  -6   4   21.81    9.43
  -6  12   4   26.82   12.89
   6 -12   4   37.45   13.97
  12   6  -4    6.40    9.03
 -12  -6  -4   62.57   14.54
  12   6   4   29.42   12.83
  -6  12   4   32.08   11.74
  12   6   4   25.33   13.88
   6 -12  -4   42.25   15.28
 -12  -6   4   46.26   11.58
   6 -12   4   39.61   11.86
 -12  -6  -4   14.96   11.73
 -12  -6   4   32.43   10.99
  -6  12  -4   19.24    3.93
  -6  12  -4   27.86   15.49
  -6  12   4    8.48   14.34
   6 -12  -4   36.68   11.93
  -6  12  -6   -3.12   18.12
   6 -12   6   13.16   13.51
  -6  12   6    4.89   14.70
  12   6   6    2.61   18.27
 -12  -6  -6    3.51   12.84
 -12  -6  -6   20.59   18.27
  12   6  -6    8.86   12.53
   6 -12   6    4.90   17.99
  -6  12   6   53.90   20.66
   6 -12  -6   34.24   18.49
 -12  -6   6   12.26   12.37
 -12  -6   6   13.75   14.80
 -12  -6  -6   32.88   17.14
 -12  -6   6   28.18   14.36
  -6  12  -6   -4.93   18.39
   6 -12  -6    8.31   11.95
 -12  -7   1    2.79    7.97
  12   7   1    1.72   10.28
 -12  -7  -1    9.85    8.55
   7 -12   1    5.77   10.48
   7 -12  -1   11.63   11.51
  12   7   1   17.52    8.18
 -12  -7  -1   25.78   12.24
  -7  12   1   13.49   11.99
  12   7  -1    5.59    9.09
  12   7  -1   12.69   12.09
 -12  -7   1  -12.07    9.25
  -7  12   1   19.80   12.19
  -7  12  -1   10.82   10.18
   7 -12  -1    6.69   12.77
  -7  12  -3   -1.30   14.97
   7 -12   3   30.48   16.37
  12   7  -3   10.66    5.45
  12   7   3   19.52   11.73
 -12  -7  -3   27.71   12.04
  12   7  -3   22.05    8.70
  12   7   3   -1.96   12.24
   7 -12  -3   10.74   12.67
   7 -12  -3  -12.13   13.71
  -7  12   3   13.88   13.92
 -12  -7   3   21.51    8.31
 -12  -7   3    8.57    8.85
 -12  -7   3   25.84    5.36
 -12  -7  -3    5.56   11.96
  -7  12   3   -0.44   11.40
  -7  12   3   21.08   12.73
   7 -12   3    6.42   12.65
 -12  -7   3   15.72    6.25
   7 -12   3   10.57   11.19
   7 -12  -3   17.57   11.59
  -7  12  -5   17.70   17.86
   7 -12   5    1.05   12.72
  -7  12   5    4.63   14.18
 -12  -7  -5  -13.56   12.64
  -7  12  -5  -26.66   17.41
   7 -12   5   -9.46   18.13
 -12  -7  -5    7.78   15.84
 -12  -7   5    4.68   12.18
  -7  12   5   18.14   17.92
  -7  12   5  -12.43   12.71
  12   7   5   -8.17   15.74
   7 -12  -5   -0.75   16.34
  -7  12   5  -13.81   15.21
 -12  -7   5  -15.55   12.07
   7 -12   5  -13.97   16.78
 -12  -7   5   18.82   11.98
  12   7  -5   -0.38   10.80
 -12  -7  -5   -4.57   15.54
   7 -12  -5    7.36   12.24
  12   7   5   -3.80   13.94
  -7  12  -7   -5.83   18.43
   7 -12   7   -2.05   15.54
  -7  12   7   17.49   15.95
 -12  -7   7   -5.36   16.04
 -12  -7  -7    7.25   18.25
 -12  -7  -7  -13.98   14.15
   8 -12   0   71.71   15.87
 -12  -8   0   70.79   12.37
   8 -12   0   44.50   13.19
 -12  -8   0   53.49    5.27
  -8  12   0   91.87   12.38
  12   8   0   53.24    5.59
 -12  -8   0   71.75   11.51
  12   8   0   43.49   12.05
  12   8   0   48.79   10.13
  -8  12   0   58.96   14.70
  -8  12  -2   14.25   10.76
 -12  -8  -2   32.66   10.66
 -12  -8  -2   16.25   12.05
   8 -12  -2  -21.46   12.84
  12   8  -2   14.58    8.69
   8 -12  -2   21.59   13.25
  -8  12   2   29.06   12.29
  12   8   2   20.82   10.71
 -12  -8  -2    1.66   12.09
  12   8   2   -6.92   10.77
  12   8   2   40.34   12.80
 -12  -8   2   21.27    7.32
   8 -12   2   34.60   11.49
  -8  12   2   -0.44   11.42
 -12  -8   2   27.54    7.19
   8 -12  -2    3.30   12.23
  -8  12  -2   -7.28   14.74
  -8  12  -4  -26.71   17.17
 -12  -8   4    1.39    4.86
  -8  12   4   10.34   14.99
   8 -12   4    1.46   12.64
   8 -12   4  -14.64   17.97
  12   8  -4   -3.38    8.15
   8 -12   4   -6.75   14.87
 -12  -8  -4    4.74   14.29
 -12  -8   4   12.76    8.55
  -8  12   4   -9.30   11.28
  -8  12  -4    2.18    6.81
   8 -12  -4   -0.67   14.91
 -12  -8   4   -2.48    9.19
  -8  12  -4   -8.08   15.30
 -12  -8  -4   12.69   12.07
 -12  -8  -4   11.27   14.33
  12   8   4    6.87   14.27
  12   8   4   12.69   13.02
   8 -12  -4    5.46   12.05
  -8  12   4   -2.50   12.93
 -12  -8   4   11.04   10.37
 -12  -8  -6    8.35   18.14
  -8  12  -6   17.55   18.92
   8 -12   6    4.37   14.79
  -8  12  -6   -0.86   18.74
  12   8  -6   10.69   12.99
   8 -12   6   17.13   18.21
  12   8   6   -4.43   19.15
 -12  -8   6   -5.75   13.76
 -12  -8  -6   -4.46   13.64
 -12  -8   6    6.49   13.87
 -12  -8  -6   25.31   17.34
   8 -12  -6  -25.49   18.65
  -8  12   6   -0.73   15.36
  12   8   6   24.11   15.50
   8 -12  -6  -15.88   12.43
  -8  12   6   19.11   20.42
 -12  -9   1    3.42   10.48
   9 -12  -1   -4.16   13.66
   9 -12   1  -14.33   15.83
  12   9   1  -10.10    9.28
 -12  -9   1   -6.99    7.42
 -12  -9  -1    3.24    8.40
  12   9   1    3.70   12.49
  12   9  -1   -8.54   11.84
   9 -12  -1   -3.31   12.41
  12   9   1   -4.21    8.54
  -9  12   1   -9.83   12.31
 -12  -9  -1   15.95   12.70
   9 -12   1   11.42   11.70
  -9  12   1  -11.84   12.82
  12   9  -1    4.48    8.21
 -12  -9   1   12.83   10.40
  -9  12  -1   -4.10   10.81
  -9  12  -1    1.14   14.08
  -9  12  -3  -14.76   16.58
  12   9  -3    7.18    7.70
  12   9   3    0.51   13.11
  -9  12  -3    8.06   11.45
  12   9   3   -3.95   12.03
  -9  12   3   15.35   12.18
 -12  -9  -3    4.35   12.13
   9 -12  -3   13.28   12.80
   9 -12   3  -16.12   17.13
 -12  -9   3    0.71    3.98
  -9  12   3   -3.66   13.74
   9 -12  -3   -2.40   13.55
 -12  -9  -3  -18.31   11.95
  -9  12   3   -7.52   11.34
 -12  -9   3    7.05    7.25
   9 -12   3   -2.33   11.86
  12   9   3    5.19   13.11
 -12  -9   3   12.56    6.98
   9 -12  -3  -11.30   12.92
   9 -12   5    8.67   13.82
  -9  12  -5   20.78   18.98
 -12  -9  -5   37.74   13.57
  -9  12  -5    7.80   18.10
  12   9  -5   12.83   10.56
  -9  12  -5   12.49    4.97
   9 -12   5    8.52   17.17
   9 -12  -5   42.08   16.73
 -12  -9  -5   12.92   16.31
  -9  12   5   47.21   12.53
  -9  12   5    5.54   14.39
  12   9   5   16.80   17.04
 -12  -9   5    8.26   11.38
   9 -12  -5   20.96   12.72
 -12  -9  -5   47.24   17.00
 -12  -9   5    0.83   10.44
 -12  -9   5   19.17   11.39
  12   9   5   25.04   14.85
   9 -12   7   -5.14   16.58
  -9  12  -7  -24.96   19.37
  -9  12   7   -5.51   16.46
 -12  -9  -7    3.60   14.50
  12   9   7   -1.58   17.04
  10 -12   0  124.67   17.13
 -12 -10   0  152.62   14.57
  12  10   0  147.14   15.60
  10 -12   0  127.11   14.80
 -12 -10   0  120.76   13.73
 -12 -10   0  149.09    9.15
 -10  12   0  154.37   14.82
 -10  12   0  141.35   16.70
  12  10   0  119.33   11.64
 -12 -10   2   42.67   10.22
  10 -12  -2   31.40   13.49
 -12 -10  -2   31.34   13.98
 -12 -10   2   34.22    6.47
  12  10  -2   41.25    9.91
 -10  12   2   24.49   14.02
  10 -12  -2   39.63   13.51
  12  10   2   39.78   10.76
  12  10  -2   36.51    7.66
  10 -12  -2   31.19   13.74
  12  10   2   37.00   10.82
  10 -12   2   24.24   12.84
 -12 -10   2   23.04    9.56
 -10  12   2   37.72   11.85
  12  10  -2   44.31   12.09
 -10  12  -2   56.70   11.66
 -12 -10  -2   34.56   10.85
  10 -12   4   37.62   19.21
 -12 -10   4   -0.80    8.55
 -10  12  -4   34.42   16.76
 -12 -10  -4   20.56   15.83
 -10  12  -4   42.97    8.93
 -12 -10   4   19.99    9.05
 -12 -10  -4   41.89   14.62
 -10  12   4    3.49   11.33
 -10  12   4   34.73   16.59
  12  10   4   34.87   15.41
 -12 -10   4   24.09    8.74
  10 -12  -4   52.60   16.22
  12  10  -4   28.31    7.54
 -10  12   4   35.71   14.29
 -12 -10   4   28.60   10.29
 -12 -10  -4   47.19   13.30
  12  10  -4   29.69    8.62
  12  10   4   39.99   14.19
 -10  12  -4   24.28   16.61
  10 -12   4   20.23   13.39
  10 -12  -4   35.59   12.97
 -12 -10  -6   13.78   14.34
 -10  12  -6  -17.14   20.33
  10 -12   6    2.03   15.52
 -12 -10   6   -0.48   11.38
 -10  12   6    8.36   15.56
  12  10   6   17.26   19.69
  10 -12   6   -1.79   19.03
 -12 -10  -6   30.49   18.48
 -12 -10  -6   14.80   17.12
  10 -12  -6   -1.74   19.14
 -12 -10   6   -3.53   13.63
 -10  12  -6   -9.85   18.93
 -10  12   6   29.50   19.15
  12  10   6   -3.02   15.42
 -12 -11  -1   19.14    8.83
  11 -12  -1    5.73   14.52
  11 -12   1  -11.64   16.03
  11 -12   1   47.95   13.48
  12  11   1    4.02    9.42
 -12 -11  -1   26.79   11.76
  12  11   1   29.81    9.28
  12  11  -1   20.54    7.27
  12  11  -1    5.19   11.02
  11 -12  -1   17.37   13.20
  12  11  -1    8.95   11.40
 -12 -11  -1   33.06   11.85
  11 -12   1   13.14   12.72
 -11  12   1   26.29   13.17
 -12 -11   1   12.26   10.86
 -12 -11   1   22.66   11.00
 -11  12   1   13.63   12.40
 -11  12  -1   37.12   12.02
 -11  12  -1   17.31   14.69
  11 -12  -3   -0.50   13.18
 -12 -11   3   15.22    8.33
 -11  12  -3    9.77   16.50
  11 -12   3   10.62   13.18
 -11  12  -3   16.07    9.77
  12  11   3   35.69   14.42
 -12 -11  -3   32.99   12.89
 -12 -11   3   18.02    4.57
  12  11   3   24.97   13.12
  11 -12  -3   -8.68   14.91
 -11  12  -3   26.88   12.70
  12  11  -3   16.47    9.20
 -11  12   3   28.09   15.15
  11 -12   3   14.07   17.48
 -12 -11  -3   26.41   12.34
 -11  12   3   40.62   11.99
  11 -12  -3   24.87   14.51
 -12 -11   3   32.35    6.76
 -12 -11   3   32.28    9.45
  11 -12   5   58.39   15.70
 -11  12  -5    9.41    7.99
 -11  12  -5   29.29   20.19
  12  11  -5   29.02   11.09
 -12 -11   5   30.61    8.84
 -11  12   5   49.01   16.12
 -12 -11  -5   35.23   17.07
 -12 -11  -5   34.24   14.19
  12  11   5   18.90   18.16
 -12 -11  -5   41.15   17.38
 -12 -11   5   26.81   11.50
  11 -12  -5   25.80   17.55
 -11  12   5   33.84   11.79
  12  11   5   15.07   15.99
 -12 -11   5   44.42   11.01
  11 -12   5   17.93   18.04
 -11  12  -5    8.18   18.12
 -12 -11   5   26.75   10.28
  11 -12  -5   33.75   12.88
  11 -12   7   -1.57   17.01
 -12 -11  -7   16.32   15.93
  12  11   7    6.74   17.69
  12 -12   0   37.82   15.79
 -12 -12   0   42.61   11.19
 -12 -12   0   50.67    6.84
 -12 -12   0   42.56   12.06
  12 -12   0   19.81   13.19
  12  12   0   28.71   12.64
 -12  12   0   30.42   12.89
 -12  12   0   54.41   14.68
  12  12   0   30.23    8.55
 -12  12  -2   -3.05   12.17
  12 -12  -2   26.78   14.14
  12  12   2   17.95   10.56
 -12 -12   2   12.30    4.65
  12 -12   2   10.61   13.06
 -12 -12  -2   31.87   11.42
  12  12  -2   24.74    5.51
  12  12  -2   19.06   11.86
  12  12   2    6.00   11.29
  12  12  -2   30.39   10.51
 -12  12   2    6.67   13.97
  12 -12   2    2.35   16.78
 -12 -12  -2   13.70   13.34
  12 -12  -2   15.41   14.49
 -12 -12   2    2.45   10.45
  12 -12   2   11.83   14.45
 -12  12   2   14.26   11.73
  12 -12  -2   45.64   13.59
 -12 -12   2   42.67   10.43
  12 -12  -4  231.42   18.89
 -12 -12  -4  202.20   19.16
 -12  12  -4  150.52   22.97
  12  12   4  202.87   20.26
 -12  12   4  215.86   20.75
  12 -12   4  160.39   23.01
 -12 -12   4  218.90   14.27
  12  12   4  219.96   20.73
  12 -12  -4  205.44   20.87
 -12 -12   4  223.17   14.13
  12  12  -4  231.53   14.91
 -12  12   4  243.60   17.27
 -12  12  -4  195.66   15.64
 -12 -12   4  196.40   16.22
 -12 -12  -4  210.20   20.48
 -12 -12   4  217.74   15.73
  12 -12   4  207.96   19.60
 -12 -12  -4  182.44   19.63
  12 -12   6  -16.12   16.38
 -12  12  -6    8.69   20.86
  12  12   6   -3.72   19.63
 -12  12   6   -9.59   16.25
 -12 -12  -6   -3.44   18.43
  12 -12  -6   13.32   18.64
 -12 -12  -6   15.59   15.53
 -12 -12  -6   -9.00   17.61
  12  12   6   23.25   16.56
  13 -12   1   24.54   16.16
  13 -12  -1    8.77   15.35
 -12 -13   1   33.34   11.17
 -12 -13   1   31.46    4.19
  12  13   1   40.71   10.06
  13 -12  -1   40.89   14.03
 -12 -13   1   26.77    4.78
  13 -12   1   49.69   14.30
  12  13  -1   37.79   12.50
 -12 -13  -1   16.65    9.86
  12  13  -1   35.33    6.84
  13 -12   1   43.02   13.87
 -12 -13  -1   18.03   13.24
  12  13  -1   27.34   11.78
 -13  12   1   62.08   14.14
 -12 -13   1   62.93   12.37
  12  13   1   24.75   13.00
 -12 -13  -1   33.71   11.98
 -13  12   1   40.35   13.42
 -13  12  -1   48.85   16.21
 -13  12  -1   23.42   13.17
  13 -12  -3   28.62   14.27
 -12 -13   3    1.95    3.81
  13 -12  -3  -26.29   15.18
 -13  12   3   25.06   11.94
 -12 -13   3   -9.76    8.87
 -13  12   3    3.50   14.85
 -12 -13  -3  -16.71   13.03
 -12 -13   3   -0.99    4.90
 -13  12  -3   13.13   11.38
  12  13   3    7.49   13.40
  13 -12   3  -12.77   15.22
  12  13  -3    8.19   10.70
 -13  12  -3   25.55   12.84
 -13  12  -3  -16.24   16.93
  13 -12   3    0.59   15.01
 -12 -13  -3    4.91   12.37
 -12 -13   3    9.59   11.11
  12  13   3   26.21   13.54
  13 -12  -5   21.54   13.07
  12  13   5   27.63   16.29
 -13  12  -5   34.20   21.51
 -13  12   5   31.81   16.33
 -12 -13  -5   19.88   14.78
 -12 -13  -5   -5.27   17.12
  13 -12  -5   18.36   18.06
  12  13   5   12.08   18.18
 -13  12   5   34.79   11.71
 -12 -13  -5  -23.89   17.76
 -12 -13   5   12.85   11.13
 -12 -13   5   -0.34    9.55
  13 -12   5   38.28   16.82
  11  13   0    6.63    7.46
  13 -11   0    9.75   14.98
 -11 -13   0   -0.45    7.67
 -11 -13   0   -3.78   10.63
  11  13   0    1.59   12.26
  13 -11   0   -1.61   13.37
 -11 -13   0  -12.40   12.30
 -13  11   0    4.24   12.21
 -13  11   0   22.77   14.93
  11  13   2    8.16   12.31
  13 -11  -2    4.60   13.47
 -13  11  -2  -10.80   16.81
  13 -11  -2   -2.15   13.75
 -13  11  -2   -9.01   12.57
 -11 -13   2   -7.35   11.50
 -11 -13   2    0.81    4.21
 -11 -13   2  -10.92    9.78
 -11 -13  -2   -0.42   11.78
  13 -11  -2    6.66   13.95
  11  13   2   -1.68   11.60
  11  13  -2    2.57   10.75
 -13  11   2    2.46   14.52
 -13  11   2    3.22   12.13
  13 -11   2   -0.55   13.64
  11  13  -2    3.28   11.23
 -11 -13  -2    2.50   13.47
  13 -11   2    1.85   14.04
  13 -11   2    9.47   17.23
 -13  11  -4   15.71   10.40
 -11 -13   4   16.75   12.37
  13 -11  -4    6.76   12.79
 -13  11  -4   -9.64   19.15
  11  13   4   -4.12   14.37
  13 -11  -4  -10.94   15.90
 -11 -13   4    0.30    8.62
  13 -11   4   27.97   16.88
 -11 -13   4    3.64    6.35
 -11 -13  -4  -16.43   15.54
  11  13  -4   -6.59   10.11
 -11 -13  -4   13.69   16.08
 -13  11   4    7.97   10.81
  11  13   4    0.67   15.50
 -11 -13  -4   25.65   13.88
  13 -11   4   12.64   15.29
 -11 -13   4    2.03    9.37
  13 -11   6    9.92   17.27
  11  13   6    4.06   16.44
 -13  11   6  -15.16   16.51
 -13  11  -6  -11.94   21.28
  13 -11  -6   13.09   18.58
 -11 -13  -6   -6.92   19.04
  11  13   6  -53.28   21.34
 -11 -13  -6  -23.10   18.07
 -11 -13  -6    0.76   15.12
  10  13   1   -3.59   12.46
 -13  10  -1    6.59   12.83
 -10 -13   1    9.84    5.83
 -13  10  -1   10.02   15.43
  13 -10  -1   13.46   14.04
  10  13  -1  -15.81   11.36
  10  13   1   -4.16    8.82
  13 -10   1    2.67   12.93
 -10 -13   1    0.18    6.67
 -10 -13  -1  -20.54   11.65
  13 -10   1    9.00   15.66
  13 -10   1   10.47   13.10
  13 -10  -1  -19.09   13.74
  10  13   1    0.57   13.19
  10  13  -1   -2.83    4.34
 -10 -13  -1   15.94   11.98
 -10 -13   1   11.89   10.38
 -10 -13   1    6.00   11.66
  10  13  -1    3.25   11.50
 -10 -13  -1   -3.27    9.50
 -13  10   1   14.21   13.54
 -13  10   1    1.96   12.89
 -10 -13   3  -13.61    6.58
 -10 -13  -3   -7.47   12.66
  10  13  -3    7.68   10.09
 -13  10  -3   13.30   17.35
  13 -10  -3  -12.17   12.51
  10  13   3   13.48   12.87
 -13  10  -3    3.34   12.77
  13 -10   3   -0.58   13.77
 -10 -13   3    0.34    7.42
  10  13  -3    2.77   10.32
 -13  10  -3    3.52   10.77
  10  13   3   -4.30   13.03
  13 -10  -3  -18.02   14.08
 -10 -13  -3    1.33   13.60
 -13  10   3   -7.47   10.80
  13 -10   3   -1.33   15.75
 -10 -13  -3  -16.83   13.57
 -10 -13   3   -0.84   11.71
  13 -10  -5    6.18   11.17
 -13  10  -5   23.07    9.70
 -13  10  -5   11.21   20.04
  13 -10  -5   24.79   17.20
  10  13   5    0.73   15.62
 -10 -13   5    2.92   12.59
 -10 -13   5    4.01    8.11
 -10 -13  -5   27.28   14.66
  13 -10   5   22.17   17.20
  10  13  -5   27.76   11.51
 -10 -13   5    5.09   11.85
 -13  10   5   12.34   15.39
 -10 -13  -5    3.71   16.45
  10  13   5   12.77   17.81
 -13  10   5   17.35   17.74
 -10 -13  -5   -6.32   16.87
 -10 -13   5    8.38    9.45
  10  13  -5    8.97    9.52
 -13  10   5   20.51   10.19
  13 -10   5   -8.96   15.58
 -13  10   7   31.76   17.39
 -13   9   0   -0.54   13.75
   9  13   0   12.38    6.30
  13  -9   0    1.19   15.12
  -9 -13   0   -0.86   10.74
  -9 -13   0   -0.50    8.33
  13  -9   0  -13.75   13.24
   9  13   0   -0.50   12.15
  -9 -13   0  -15.15   11.33
 -13   9   0   -0.50   12.38
   9  13   0   -2.24   10.61
  13  -9   2   -5.19   16.87
 -13   9  -2  -12.38   14.95
  13  -9  -2    8.88   12.80
   9  13   2   21.55   11.77
 -13   9  -2    1.54   12.10
  13  -9   2    9.65   13.24
  -9 -13  -2   17.50   11.92
  13  -9  -2   12.72   13.47
   9  13   2    7.30   11.41
  -9 -13   2   -4.52    8.52
  -9 -13   2   -4.49    6.36
   9  13  -2   11.57   10.69
  13  -9   2    8.48   12.27
  -9 -13   2   21.86   11.45
 -13   9   2    5.61   11.25
   9  13  -2   18.47   10.59
  -9 -13   4   22.20   12.59
  13  -9  -4   14.49   10.96
 -13   9  -4    1.70   18.56
   9  13   4    7.15   13.89
  -9 -13   4   34.00    7.92
 -13   9  -4   27.31   16.94
  13  -9  -4    9.56   14.95
  13  -9   4  -13.62   16.02
  13  -9  -4   20.27   14.91
   9  13  -4    7.85   10.10
 -13   9   4   19.46    9.75
  -9 -13   4    5.81    9.94
   9  13   4   12.62   16.19
  -9 -13  -4    1.26   14.30
 -13   9   4    4.32   16.20
  -9 -13   4    9.98    6.00
  -9 -13  -4   17.59   14.92
 -13   9  -4   15.87   10.35
  -9 -13  -4   19.01   13.18
  13  -9   4    1.86   14.66
  -9 -13  -6    4.39   15.26
  -9 -13   6   -6.63   14.29
 -13   9  -6   11.70   20.53
  13  -9  -6  -20.52   17.78
  -9 -13  -6   11.91   17.93
 -13   9   6   12.71   15.77
   9  13  -6   -0.53   13.70
  -9 -13  -6   26.40   16.88
  13  -9   6   14.55   17.13
   9  13   6   23.12   20.11
   9  13   6   27.88   16.47
 -13   9   6   46.39   20.22
 -13   8  -1    7.22   11.72
 -13   8  -1   20.28   14.75
  13  -8   1   28.36   15.82
  -8 -13  -1   20.76   10.47
   8  13   1   48.87   11.85
  13  -8  -1    4.52   13.30
  13  -8   1   13.94   12.70
  -8 -13  -1   45.49   13.37
   8  13  -1   20.35   10.12
  -8 -13   1   24.43   10.06
   8  13   1   26.83   13.04
   8  13  -1   32.61   11.72
  13  -8   1    8.48   12.54
  -8 -13   1   28.96   11.55
  -8 -13  -1   11.68   10.80
 -13   8   1    4.00   12.89
  13  -8   3   60.10   15.29
  13  -8  -3   64.39   11.60
 -13   8  -3   45.06   14.94
   8  13   3   40.76   13.12
 -13   8  -3   43.69   13.19
   8  13  -3   39.05    9.53
  -8 -13  -3   58.27   12.68
  -8 -13  -3   49.04   14.01
  13  -8  -3   37.38   13.99
  13  -8  -3   59.94   14.30
   8  13   3   64.12   14.10
  -8 -13   3   37.23    9.08
 -13   8  -3   43.49   11.32
  13  -8   3   47.57   13.67
 -13   8   3   28.63   15.16
  -8 -13   3   32.77   12.34
  -8 -13  -3   34.85   13.59
   8  13  -3   60.94   11.22
 -13   8   3   52.03    9.83
  -8 -13   3   53.33    7.38
  13  -8   5   38.42   15.62
  13  -8  -5   31.21    8.66
  -8 -13  -5   31.75   15.78
 -13   8  -5   50.24   20.55
  -8 -13   5   39.97   13.07
 -13   8  -5   36.36   10.46
   8  13  -5   19.60   10.63
  -8 -13   5   42.03   12.63
  -8 -13  -5   50.73   17.15
   8  13   5   16.60   17.90
  -8 -13   5   35.83    9.90
  13  -8  -5   48.55   16.67
   8  13  -5   29.13   12.34
 -13   8   5   39.38   17.95
   8  13   5   49.98   15.44
 -13   8   5   41.28    8.43
  13  -8   5   36.69   17.41
  -8 -13   5   35.09    5.64
  -8 -13  -5   55.22   14.47
 -13   8  -5   21.58   17.71
   8  13   7   13.24   17.42
  -8 -13  -7   27.59   17.57
 -13   8   7  -19.83   15.78
  13  -8  -7    4.46   19.18
  -8 -13  -7  -27.81   16.68
  13  -7   0  -20.86   14.09
 -13   7   0   15.09   13.81
   7  13   0    8.91   10.36
   7  13   0    7.19    5.77
  -7 -13   0   -1.16   10.08
  -7 -13   0   -9.69    9.09
   7  13   0    0.47   12.09
  -7 -13   0    8.00   11.97
 -13   7   0    4.68   12.12
 -13   7  -2  -13.26   15.69
  13  -7  -2   -4.04   11.41
 -13   7  -2    2.47   12.08
  13  -7   2   -0.70   15.35
   7  13   2   -0.50   11.72
  -7 -13   2    2.39    7.75
 -13   7  -2    3.65   11.39
  13  -7  -2   10.69   12.32
   7  13   2   21.55   12.23
   7  13  -2   -3.44    9.56
   7  13  -2    1.25   11.01
  13  -7   2   -9.20   12.15
  -7 -13   2    3.88   10.80
  -7 -13  -2    7.39   11.59
  -7 -13   2    6.74    8.38
 -13   7   2    4.45    9.97
  13  -7   2  -19.94   13.48
  13  -7  -2  -10.35   13.22
  13  -7   4   -4.29   13.81
  -7 -13   4  -11.14   13.12
  13  -7  -4    6.53    9.22
 -13   7  -4   11.68   17.15
  -7 -13   4    1.15   10.41
   7  13   4    2.46   13.00
  13  -7  -4   10.34   13.87
  -7 -13  -4   18.19   14.70
  13  -7   4   34.92   15.66
  13  -7  -4   -1.17   14.54
   7  13   4  -16.52   15.07
  -7 -13   4   -3.33    5.60
 -13   7  -4  -18.57   16.04
 -13   7   4  -12.25   14.91
  -7 -13  -4   14.72   12.39
 -13   7   4   -2.12    7.86
  -7 -13  -4    3.95   13.98
  -7 -13   4   -2.76    6.13
   7  13  -4   -2.04   10.97
 -13   7  -4   -7.40    9.98
 -13   7   6  -27.02   19.24
  13  -7   6  -13.04   16.72
 -13   7  -6   10.57   20.07
   7  13  -6   -0.57   14.00
   7  13   6    9.71   15.71
  13  -7   6  -17.11   19.33
  -7 -13  -6  -25.13   17.56
  -7 -13   6   20.56   14.71
  13  -7  -6  -36.13   17.49
  -7 -13  -6   10.74   14.42
   7  13   6   39.32   20.14
  -7 -13  -6  -13.15   16.13
 -13   7   6   24.42   15.02
 -13   6   1   55.16   12.61
   6  13  -1   67.99   10.57
 -13   6  -1   45.31   12.63
 -13   6  -1   72.67   15.60
  -6 -13  -1   76.87   11.52
  13  -6  -1   94.73   13.62
  13  -6   1   50.06   12.50
   6  13   1   61.68   13.11
  -6 -13  -1   67.10   11.74
   6  13   1   63.66   12.15
  13  -6  -1   40.12   12.95
  13  -6   1   64.74   15.52
   6  13  -1   77.99   12.42
  -6 -13  -1  104.61   13.32
  13  -6   1   61.33   13.78
  -6 -13   1   91.18   12.51
  -6 -13   1   67.62    9.98
  13  -6  -3   16.41    9.50
   6  13  -3    9.40    7.98
 -13   6  -3   15.50   10.93
  13  -6   3   12.83   13.28
  -6 -13   3   26.43    9.72
  13  -6   3   24.55   12.93
   6  13   3    8.17   12.45
  13  -6  -3   38.61   13.42
  -6 -13  -3   16.51   13.14
 -13   6  -3   16.61   12.24
  13  -6  -3   25.14   12.72
   6  13   3    5.96   13.31
  -6 -13   3   11.05    5.80
  -6 -13  -3   19.45   13.27
 -13   6  -3    7.48   13.16
   6  13  -3   23.94   11.00
  -6 -13  -3    8.37   11.23
 -13   6   3    8.76   14.08
 -13   6   3    5.07    8.16
  -6 -13   3    3.58   12.30
  13  -6   5   66.17   15.54
 -13   6  -5   37.43   17.20
 -13   6  -5   11.67   19.48
  13  -6   5   40.40   16.73
  -6 -13   5   31.48   14.01
  13  -6  -5   31.97    4.79
  -6 -13   5   51.31    9.44
 -13   6  -5   12.03   10.16
  -6 -13  -5   42.35   16.90
 -13   6   5   31.51   17.21
  -6 -13   5   28.86   12.77
  -6 -13  -5   33.51   14.25
  13  -6  -5   38.43   15.94
   6  13  -5   50.98   13.01
   6  13   5   43.12   17.95
  -6 -13  -5   14.56   14.56
   6  13  -5   16.59   11.50
   6  13   5   44.10   14.89
 -13   6  -7  -14.15   21.05
  13  -6  -7   -4.15   18.32
   6  13   7   26.52   17.28
  -6 -13   7   16.47   17.09
 -13   6   7   -4.43   19.97
  -6 -13  -7  -17.06   16.96
  -6 -13  -7    3.14   15.77
   6  13  -7   11.16   16.24
 -13   6   7   -5.00   15.86
 -13   5   0    5.20   13.16
  13  -5   0    5.99   13.85
   5  13   0   -5.55   10.02
   5  13   0    3.10    6.25
  13  -5   0   16.21   10.74
  -5 -13   0    6.42   10.10
   5  13   0   -3.62   11.56
  -5 -13   0    8.24   12.20
  -5 -13   0   -5.55   10.24
  -5 -13   2   36.66    7.80
  13  -5   2   48.30   12.47
 -13   5   2   44.81   13.86
 -13   5  -2   24.23   13.32
  -5 -13  -2   24.25   12.53
  -5 -13   2   25.40    9.94
   5  13   2   12.34   11.38
 -13   5  -2   31.10   11.36
 -13   5  -2   46.87   15.41
   5  13   2   36.04   12.73
  13  -5  -2   44.38   11.34
  13  -5  -2   43.44   13.12
  13  -5  -2   26.83   10.09
  -5 -13  -2   15.40   12.88
   5  13  -2   41.36   11.50
 -13   5  -2   22.86   11.66
   5  13  -2   29.91    8.48
  -5 -13   2   38.50   12.60
  13  -5   2   53.52   12.45
 -13   5   2   47.03   10.21
  -5 -13   4    3.72    5.71
  -5 -13  -4   -5.17   12.26
  13  -5   4  -12.73   13.46
  -5 -13   4   14.61   13.18
 -13   5  -4   -5.71   16.48
  -5 -13  -4    5.61   13.52
  13  -5  -4   -0.83    5.22
  13  -5   4  -11.91   14.71
  13  -5  -4  -10.97   13.41
  -5 -13   4    4.32    6.44
  -5 -13  -4    5.03   13.99
  13  -5  -4    9.11   13.75
   5  13   4   35.09   13.14
   5  13   4    1.98   15.05
  -5 -13   4   -0.63    3.26
 -13   5   4   27.64   14.75
 -13   5   4    3.40    4.72
 -13   5  -4   11.31   15.57
   5  13  -4  -10.22   11.78
   5  13  -4    3.04   10.91
  -5 -13   4   11.06   11.08
 -13   5  -4    3.63   10.22
  -5 -13  -6  -14.17   15.27
 -13   5  -6    7.66   19.93
  13  -5   6   -6.96   16.94
  -5 -13   6   20.68   14.40
  -5 -13  -6   -5.82   18.35
  13  -5  -6  -32.55   16.60
   5  13   6   20.27   15.46
   5  13   6    1.81   19.21
 -13   5   6   -0.84   19.18
 -13   5   6   20.00   17.27
 -13   5   6   -7.16   14.54
 -13   5  -6  -10.57   19.56
 -13   5  -6   11.73    9.82
  -5 -13   6   14.77    9.03
   5  13  -6   -5.33   11.54
  13  -5   6   -0.89   18.17
  -5 -13   6  -12.36   14.36
  -5 -13  -6   -1.46   15.31
   5  13  -6  -14.69   14.94
  13  -4   1  246.17   18.37
   4  13   1  263.59   18.44
 -13   4  -1  242.87   21.13
 -13   4  -1  258.98   19.15
  -4 -13  -1  259.64   18.62
   4  13   1  269.79   16.76
   4  13  -1  255.84   18.56
  -4 -13   1  291.27   19.30
 -13   4   1  251.82   18.95
  13  -4  -1  225.96   19.06
  13  -4  -1  281.73   19.05
 -13   4   1  275.49   19.57
   4  13  -1  263.92   17.03
  -4 -13   1  296.05   16.90
  -4 -13  -1  269.53   18.16
  -4 -13   3    2.84   12.17
  13  -4   3   12.32   12.30
  13  -4  -3    5.01    6.95
  13  -4   3    6.05   13.23
  13  -4  -3  -11.50   11.70
  -4 -13   3   -1.19    2.90
  13  -4  -3   -3.19   12.71
   4  13  -3   -6.54    7.18
  -4 -13   3   -8.48    5.56
   4  13   3    7.11   12.99
   4  13   3   -4.72   11.65
 -13   4   3  -21.28   13.46
  -4 -13   3   12.15   10.76
 -13   4  -3  -20.21   11.22
  -4 -13  -3   -7.33   12.06
  -4 -13  -3  -10.69   13.60
 -13   4  -3   19.17   13.98
   4  13   3  -10.36   12.70
   4  13  -3   -0.87   11.30
 -13   4   3   -6.81    6.41
  -4 -13   3    0.15    2.74
  -4 -13  -3  -13.26   11.14
 -13   4   5    1.43   15.85
  13  -4   5   -7.61   16.98
 -13   4   5   13.30   14.92
  13  -4   5   15.73   14.91
  -4 -13   5  -10.20   14.90
 -13   4  -5   -6.08   16.84
  -4 -13   5    7.29    8.58
  -4 -13   5   13.42   13.26
  13  -4  -5   -2.36   13.98
  -4 -13  -5  -15.27   16.55
  -4 -13   5    3.05    7.83
  -4 -13  -5   14.67   13.69
   4  13   5    9.09   14.68
 -13   4  -5    1.64   10.67
  -4 -13  -5   11.87   14.68
 -13   4  -5   10.69   18.85
   4  13  -5    3.18   11.66
   4  13   5    2.34   17.20
   4  13  -5   -7.97   13.53
  13  -4  -7    9.17   16.90
 -13   4   7    6.65   14.49
  -4 -13  -7   14.07   15.97
   4  13  -7    5.23   17.32
  -4 -13   7  -15.05   17.29
   4  13   7    6.26   16.64
 -13   4   7   27.57   20.05
 -13   4   7   -0.83   19.19
 -13   4  -7  -11.13   21.09
  -4 -13  -7  -11.58   15.76
  -3 -13   0    5.05    9.64
  13  -3   0  -11.44    9.84
   3  13   0   -4.80    9.65
   3  13   0   10.44    6.62
 -13   3   0    7.17   13.28
  13  -3   0    6.47   12.02
   3  13   0    2.68   11.83
  -3 -13   0   14.34   12.71
 -13   3   0    5.75   12.11
 -13   3   2   15.23    8.82
   3  13  -2   13.69    7.56
  -3 -13   2   11.15   10.37
   3  13   2    1.54   12.91
  13  -3   2   19.29   11.57
 -13   3  -2   28.19   13.14
  -3 -13  -2    9.00   12.02
  13  -3  -2   39.06   12.95
  13  -3  -2   19.73   10.11
 -13   3  -2   30.74   15.49
 -13   3  -2   -0.90   10.87
 -13   3   2   11.16   12.81
  -3 -13   2   14.34    7.42
   3  13   2   25.05   11.05
  -3 -13  -2   -4.60   12.81
   3  13  -2   21.75   11.03
  -3 -13   2   40.24   12.78
   3  13   2    9.55   10.48
 -13   3  -4   -7.20   10.51
  13  -3   4   -5.99   13.75
  -3 -13   4   -5.94    7.21
  13  -3  -4   -5.26   11.84
   3  13  -4   12.60   12.13
  -3 -13   4   -7.01   12.16
  13  -3   4  -15.31   14.48
  13  -3  -4   13.14   13.07
  -3 -13  -4    7.58   14.07
   3  13   4   -1.98   15.73
 -13   3   4    1.21   14.24
 -13   3  -4    1.62   17.18
  -3 -13  -4   -8.53   12.43
   3  13   4    1.74   12.31
  -3 -13  -4   16.13   13.61
  -3 -13   4   -9.86   14.10
 -13   3  -4   -5.15   14.73
   3  13  -4    9.26   11.89
 -13   3  -6   14.34   20.01
  13  -3   6   -0.78   16.49
   3  13   6  -20.45   18.12
   3  13  -6   31.38   15.87
  -3 -13   6    5.06   10.32
  -3 -13   6   23.49   10.76
  13  -3   6    7.51   12.94
  -3 -13   6    3.94   15.41
  13  -3   6  -18.40   18.58
  -3 -13  -6   -1.66   16.99
   3  13   6    7.78   15.45
   3  13   6  -34.23   20.47
  -3 -13  -6    7.77   14.46
 -13   3   6   15.90   16.70
 -13   3   6   -7.99   18.16
  -3 -13  -6   -5.56   14.69
 -13   3  -6   -0.42   10.09
 -13   3  -6  -17.34   18.31
  13  -3  -6  -14.74   15.31
   3  13  -6  -16.90   13.18
  -3 -13   6  -18.80   15.96
  -2 -13   1   15.25    8.61
  -2 -13  -1   20.53   11.03
  -2 -13   1   27.48   12.31
 -13   2   1   29.18   11.50
 -13   2  -1   45.34   14.40
  13  -2   1   19.12   10.79
 -13   2   1   41.39   12.41
   2  13   1   26.38    9.46
   2  13  -1   25.78    8.64
  -2 -13  -1   41.53   12.17
  13  -2  -1    7.24   12.02
 -13   2  -1   31.72   12.41
   2  13  -1   18.73   11.72
   2  13   1   10.50    9.94
  13  -2   1   34.86   12.57
   2  13  -1   16.29    3.55
  -2 -13   3   12.82   13.81
  13  -2  -3   30.83   11.13
  13  -2  -3    2.98   12.16
  13  -2   3   37.08   13.04
  -2 -13   3   26.30   11.61
  -2 -13   3   29.76    5.58
   2  13   3   46.16   14.30
  -2 -13  -3   46.94   13.50
  -2 -13  -3    9.09   11.31
 -13   2   3   13.16   12.53
   2  13   3   20.69   13.33
   2  13  -3   31.23    5.86
  -2 -13  -3   18.31   12.96
   2  13   3    7.42   12.00
 -13   2  -3   22.69   13.42
 -13   2   3   22.44    4.41
   2  13  -3   48.43   12.28
   2  13   3   13.29   11.22
 -13   2  -3   35.69   10.98
  -2 -13   3   30.45    5.44
  -2 -13   5    5.31    8.78
  -2 -13   5    4.98   15.55
  -2 -13  -5   13.05   15.51
 -13   2  -5   26.07   16.72
  -2 -13   5    4.03   13.81
   2  13   5  -10.20   15.56
  13  -2   5   17.87   16.54
 -13   2  -5    5.32   18.58
  13  -2   5    2.99   12.30
 -13   2  -5   -3.93   10.66
   2  13   5  -23.29   17.21
  13  -2  -5    1.57   13.21
 -13   2   5   12.20   14.85
  13  -2   5   28.79   14.74
 -13   2   5   14.21   15.56
   2  13   5   35.14   14.13
  -2 -13  -5   -8.21   13.68
   2  13  -5   26.34   14.40
  -2 -13  -5   15.30   13.94
   2  13  -5  -13.12   12.92
 -13   2  -7   -5.11   20.88
   2  13  -7   -9.42   17.92
  13  -2  -7    1.41   15.68
  -2 -13   7    2.36   17.30
 -13   2   7    4.32   14.17
 -13   2   7  -23.57   18.58
 -13   2   7  -22.95   19.87
  -2 -13  -7    2.95   15.34
   2  13   7    6.92   16.21
 -13   1   0   -5.16   13.05
  -1 -13   0   10.93    9.67
  13  -1   0   14.01    8.90
   1  13   0   -5.45    7.64
   1  13   0  -11.79    9.51
  13  -1   0   20.89   12.81
   1  13   0   10.61   12.26
 -13   1   0   -0.39   11.43
  13  -1   2  137.43   14.62
   1  13   2  123.27   13.70
 -13   1   2  143.81   11.52
 -13   1   2  147.92   14.88
 -13   1  -2  132.07   14.08
  -1 -13   2  125.11    8.57
  13  -1   2  147.87   14.66
  -1 -13   2  151.12   13.95
   1  13   2  133.25   13.63
  -1 -13  -2  155.59   15.73
  13  -1  -2  125.02   11.75
  13  -1  -2  170.01   15.17
  -1 -13   2  141.23   10.57
 -13   1  -2  147.16   18.04
   1  13   2  138.32   15.31
  -1 -13  -2  116.52   15.32
   1  13  -2  145.94   10.34
   1  13  -2  134.32   14.66
 -13   1  -2  132.94   14.35
  -1 -13   2  160.56   15.84
 -13   1  -4   16.05   11.40
  -1 -13   4   16.58    7.87
  -1 -13   4   10.72   15.14
   1  13  -4    6.60   13.15
   1  13   4   20.62   13.15
 -13   1  -4  -34.51   17.86
 -13   1  -4   13.18   14.91
  -1 -13   4   12.26   12.81
   1  13   4   12.19   13.43
  13  -1   4   -9.34   11.79
  -1 -13  -4   17.77   14.20
   1  13   4    9.95   15.23
 -13   1   4   -0.57   14.31
   1  13   4   20.75   13.70
  -1 -13  -4   35.47   12.22
  -1 -13  -4   10.81   12.58
  13  -1  -4   19.76   11.44
  13  -1  -4    5.29   12.13
  13  -1   4   35.85   14.51
   1  13  -4   -5.53   12.51
  -1 -13   6   -2.10   11.08
 -13   1   6   22.11   17.81
   1  13  -6   18.76   16.42
 -13   1  -6   30.73   20.41
  -1 -13   6  -29.09   17.19
 -13   1  -6   -0.86   18.40
   1  13   6   18.67   17.94
  13  -1   6   -7.10   13.52
   1  13   6   -1.80   18.88
 -13   1   6    3.22   15.22
  -1 -13   6   31.27   15.98
   1  13   6   11.87   15.42
  13  -1   6   -1.56   16.14
  -1 -13  -6   -7.31   14.26
  13  -1  -6   13.34   14.30
  13  -1   6    3.48   18.00
 -13   1  -6    0.45   11.12
   1  13  -6  -12.78   13.83
 -13   1   8   23.10   19.84
  13   0   1   87.17   11.74
   0 -13   1   96.46   10.77
   0  13  -1  103.38   10.27
 -13   0  -1   91.41   13.17
 -13   0  -1   91.42   11.94
   0  13   1   67.86   11.63
   0 -13  -1  102.11   11.85
 -13   0   1   73.65   13.96
   0 -13   1   95.57    8.38
   0  13   1  116.37   11.50
   0 -13  -1  137.21   13.97
 -13   0  -1  110.90   13.83
  13   0  -1  132.41   14.10
   0  13   1   65.64   13.64
   0  13  -1   89.19   12.96
   0 -13  -1  113.07   13.67
 -13   0   1  105.44   12.99
   0  13  -1  107.86    8.22
 -13   0   1   96.55   12.55
  13   0   1  121.71   13.70
   0 -13   1  105.63   14.41
 -13   0  -3   -0.44   10.61
   0  13  -3   10.29    4.46
   0 -13   3   19.45   14.41
   0 -13  -3   17.03   12.82
 -13   0  -3  -11.19   13.31
   0 -13   3   -0.47   12.36
  13   0   3   13.92   12.50
   0  13   3   11.05   12.48
  13   0  -3   -6.73    9.08
  13   0  -3   -5.97   11.20
   0  13   3    0.57   13.14
 -13   0   3   -2.81   12.22
   0  13   3    0.51   11.50
   0  13   3   10.96   12.38
  13   0   3    0.97   11.65
   0 -13  -3  -12.96   11.97
   0  13  -3   -6.89   12.65
   0 -13   3   -9.42    7.52
   0 -13  -3   16.37   11.86
  13   0   5   39.72   14.63
   0 -13   5   24.26   10.20
   0 -13   5   -6.09   16.01
   0  13   5   -5.46   17.20
 -13   0  -5   32.18   16.85
 -13   0  -5    8.89   19.00
  13   0   5   21.94   16.63
   0 -13   5    2.46   14.47
 -13   0   5   39.51   13.78
  13   0   5    5.91   12.58
 -13   0  -5   28.04   11.54
 -13   0   5   32.57   16.01
   0  13  -5   23.32   15.43
   0  13   5   19.03   15.44
   0 -13  -5   19.18   13.31
  13   0  -5   -5.58   11.82
   0  13  -5   -6.80   13.78
   0  13   5   29.82   14.15
   0  13  -7  -25.64   18.77
 -13   0  -7    3.12   21.50
 -13   0   7    0.74   17.58
  13   0  -7   14.34   15.32
   0 -13   7  -37.82   18.06
 -13   0   7  -27.03   19.43
   0  13   7  -12.12   15.88
 -13   0   7   22.15   13.35
   0 -13  -7   17.34   14.65
 -13  -1   0    7.99   10.51
   1 -13   0    1.16    8.02
  -1  13   0    1.96    9.67
  -1  13   0   -0.24    8.67
   1 -13   0   -8.19    9.91
  13   1   0  -21.88    8.30
  13   1   0    7.34   12.05
   1 -13  -2  377.72   24.59
  13   1   2  403.82   23.62
  13   1  -2  397.11   21.53
  -1  13   2  367.30   23.53
  13   1  -2  363.71   23.86
 -13  -1   2  353.61   24.05
  13   1   2  399.95   24.38
  -1  13  -2  379.24   20.85
  13   1   2  390.67   24.55
   1 -13   2  414.91   24.20
   1 -13   2  417.61   21.14
 -13  -1  -2  351.53   23.52
  -1  13   2  394.50   24.34
  -1  13  -2  379.55   24.34
   1 -13   2  376.92   25.66
 -13  -1   2  403.06   21.85
   1 -13  -2  415.05   25.16
 -13  -1  -2  370.10   23.76
  -1  13  -2  400.18   21.12
  -1  13   2  394.41   23.81
   1 -13   4   28.25    9.02
 -13  -1  -4    4.24   11.18
   1 -13   4  -14.23   15.84
  -1  13   4    6.35   12.22
 -13  -1  -4   27.50   14.62
   1 -13   4   32.10   13.23
  13   1  -4    9.80   12.18
  13   1   4   25.26   14.03
  -1  13   4   29.62   13.44
  13   1  -4   -2.11    9.82
  13   1   4    6.27   12.11
  -1  13   4   22.84   14.79
 -13  -1   4   21.58   13.72
  -1  13   4    0.55   12.40
  -1  13  -4   17.01   13.46
   1 -13  -4   13.06   12.63
 -13  -1   4   21.54   11.04
  -1  13  -4   -3.92   13.11
   1 -13   6   72.06   18.48
 -13  -1  -6   38.92   20.98
  13   1   6   86.23   17.45
   1 -13   6   69.84   12.93
  -1  13  -6   50.56   15.46
   1 -13   6   83.75   17.99
  13   1  -6   70.45   14.45
  -1  13   6   83.59   19.03
  13   1   6   73.72   19.49
 -13  -1   6   67.28   15.61
  13   1   6   49.15   14.84
  -1  13   6   64.58   16.24
 -13  -1  -6   75.47   19.26
 -13  -1  -6   70.39   12.68
 -13  -1   6   86.79   17.94
   1 -13  -6   35.26   14.42
  -1  13  -6   52.92   18.13
 -13  -2  -1   99.16   11.74
   2 -13   1  105.88   10.36
  13   2  -1  109.17    8.52
  13   2   1  112.75   11.43
 -13  -2  -1  118.28   13.20
   2 -13  -1  127.40   11.96
  -2  13   1  151.17   12.64
  13   2   1  135.00   14.55
  -2  13  -1  109.90   10.63
 -13  -2   1   91.01   14.89
  13   2  -1  129.02   13.62
   2 -13  -1  105.62   15.21
 -13  -2  -1   91.97   13.92
  -2  13   1  122.40   13.60
  -2  13  -1  137.71   15.11
  -2  13   1  116.79   14.43
   2 -13  -1  121.89   14.43
 -13  -2   1  122.50   12.97
  -2  13  -1  131.87   10.29
  13   2   1  119.37   13.59
   2 -13   1  106.58   15.86
  13   2  -3    1.26   11.15
   2 -13   3    9.65   14.75
 -13  -2  -3  -20.12   11.60
  13   2   3   -7.67   12.13
   2 -13   3   -4.95    8.51
  13   2   3  -10.73   11.88
   2 -13   3   -1.02   12.47
  13   2  -3   -5.54    7.50
  -2  13   3    1.57   11.63
 -13  -2  -3   12.34   12.71
  -2  13   3    2.08   12.75
  -2  13  -3    8.71    4.69
 -13  -2   3  -14.59   11.93
  -2  13   3   -3.95   11.91
  13   2   3    7.65   12.60
   2 -13  -3   -7.96   11.87
  -2  13  -3  -11.94   13.95
  -2  13   5   26.26   14.21
   2 -13   5   -5.26   15.79
   2 -13   5    1.58   10.53
  -2  13  -5    2.62   14.94
   2 -13   5    6.63   17.05
  -2  13   5    3.69   16.17
 -13  -2   5    2.99   15.04
 -13  -2   5    3.25   12.86
 -13  -2  -5   24.53   16.92
  13   2   5    2.90   13.17
  13   2  -5   11.35   11.32
 -13  -2  -5   33.41   11.95
  13   2   5   16.03   16.27
   2 -13  -5    5.12   13.00
  -2  13  -5   14.59   15.64
   2 -13   7   -8.54   14.00
  -2  13  -7  -11.28   19.68
 -13  -2  -7   14.84   21.23
  13   2  -7   14.04   14.49
   2 -13   7  -38.79   19.46
  13   2   7   -7.23   15.17
 -13  -2  -7   -0.55   12.15
 -13  -2   7  -11.97   17.04
 -13  -2   7  -33.72   18.98
   2 -13  -7  -11.68   14.30
  -2  13   7  -18.84   16.41
  -2  13  -7   10.26   16.47
 -13  -3   0    3.44   10.55
  -3  13   0    0.67    9.96
  13   3   0   -1.12    6.45
  13   3   0    7.48   11.62
   3 -13   0  -14.26    9.29
  -3  13   0    4.29    9.71
  13   3   0   -5.82   11.90
   3 -13   0  -19.06   13.98
  13   3  -2  248.84   17.56
   3 -13   2  242.72   20.92
  -3  13  -2  229.92   15.08
 -13  -3  -2  259.81   18.05
  13   3   2  264.38   19.05
  -3  13   2  245.92   18.28
   3 -13   2  222.41   15.80
 -13  -3   2  254.05   17.41
  13   3   2  276.57   17.99
 -13  -3   2  264.11   19.11
   3 -13   2  267.64   19.39
  13   3   2  230.54   17.24
   3 -13  -2  212.15   18.41
 -13  -3   2  250.70   14.29
  -3  13   2  262.94   18.71
   3 -13  -2  267.23   18.30
 -13  -3  -2  285.34   18.55
  -3  13  -2  249.02   14.84
  -3  13   2  235.16   18.67
  -3  13  -2  230.94   19.37
  13   3  -2  236.51   13.68
   3 -13   4  -14.34   10.04
   3 -13   4    2.38   13.73
   3 -13   4   28.69   16.20
  13   3   4    2.97   12.86
 -13  -3  -4    0.60   14.00
  13   3  -4   -9.45   11.08
  13   3  -4    7.40    9.07
  13   3   4   19.22   13.37
  -3  13   4   -4.73   12.50
  -3  13  -4   -7.08   14.57
 -13  -3   4    9.63   10.13
 -13  -3   4  -18.85   13.35
  -3  13   4   -1.27   14.35
  -3  13   4    8.89   12.37
  -3  13  -4   22.96   15.24
  13   3   4  -15.57   13.96
   3 -13  -4   -6.71   11.82
 -13  -3  -4   -4.97   11.64
 -13  -3  -6   26.86   12.46
  13   3   6   59.80   19.37
   3 -13   6   31.41   12.96
  -3  13   6   22.38   15.26
  13   3  -6   10.53   12.59
   3 -13   6   14.66   17.03
  -3  13   6    8.57   17.28
   3 -13  -6   13.45   18.28
 -13  -3   6    3.39   14.18
 -13  -3   6   32.32   16.53
  -3  13   6   55.27   20.96
  13   3   6   20.75   14.00
 -13  -3  -6   13.46   18.62
  -3  13  -6   17.05   18.40
   3 -13  -6    2.35   12.78
  -3  13  -6   18.96   16.44
 -13  -3   8   23.78   20.25
   4 -13  -1  258.20   16.75
  -4  13  -1  253.42   15.52
 -13  -4  -1  223.21   15.59
   4 -13   1  258.04   16.08
  13   4  -1  251.22   17.46
  13   4   1  253.91   17.74
 -13  -4  -1  232.81   16.79
  -4  13  -1  240.45   15.70
 -13  -4   1  233.69   15.24
  -4  13   1  235.10   17.18
 -13  -4   1  224.87   18.20
 -13  -4   1  237.29   16.27
  13   4   1  235.70   15.24
  -4  13   1  211.36   18.26
  -4  13   1  211.94   16.86
 -13  -4  -1  204.53   17.35
  -4  13  -1  228.07   19.48
   4 -13  -1  260.23   19.33
   4 -13   3    0.65   15.81
   4 -13   3    7.67   13.61
 -13  -4  -3   -3.44   11.70
  13   4  -3    7.45    6.92
 -13  -4   3    7.95   11.00
 -13  -4   3    3.53    3.26
  -4  13   3   11.51   13.12
  -4  13  -3    7.06    5.65
  13   4   3   21.38   12.87
  13   4   3   -9.13   11.68
 -13  -4   3    1.17   11.13
  -4  13   3    1.92   11.82
 -13  -4   3    5.66    3.88
   4 -13  -3   13.39   11.47
  13   4  -3   22.19   10.63
   4 -13   3    6.09    9.61
 -13  -4  -3   19.77   12.88
  13   4   3    3.82   12.09
  -4  13  -3   11.90   14.60
  -4  13   3  -20.53   12.60
   4 -13   5   28.04   12.21
  -4  13   5   22.52   16.92
  -4  13  -5   31.97   16.99
  13   4   5   74.31   15.64
   4 -13   5   43.69   15.52
 -13  -4   5   33.06   12.68
  13   4  -5   39.56   11.07
  -4  13   5   40.67   14.16
 -13  -4   5   30.40   12.58
 -13  -4  -5   58.68   17.49
  13   4   5   27.02   16.33
  -4  13   5   20.69   17.56
  -4  13   5   32.50   13.17
 -13  -4   5   22.11   14.86
  13   4   5   28.42   14.64
 -13  -4  -5   58.00   13.09
   4 -13  -5   32.48   13.21
   4 -13   5   -7.96   17.88
   4 -13  -5   61.63   17.11
  -4  13  -5   42.67   17.06
  -4  13   7  -26.56   16.57
   4 -13   7   -0.61   14.28
   4 -13   7   19.84   19.77
 -13  -4  -7  -21.73   13.37
 -13  -4   7   21.43   16.33
  13   4   7   -2.16   15.81
 -13  -4   7   -0.76   17.64
  -4  13  -7   -0.75   17.57
 -13  -5   0   -1.63    9.57
 -13  -5   0    3.82   11.63
  13   5   0    0.13    4.91
   5 -13   0   20.97   10.46
  13   5   0   -8.27   13.23
 -13  -5   0    0.75    9.98
  -5  13   0    2.55    9.90
  -5  13   0    0.34   10.39
  13   5   0  -16.49   10.75
  -5  13   0   -0.95   11.88
   5 -13   0   -2.54   13.34
   5 -13  -2   47.91   12.01
   5 -13   2   41.95   14.33
  -5  13  -2   43.53    7.57
 -13  -5  -2   43.17   12.04
  13   5   2   56.84   11.90
  -5  13  -2   44.15    9.09
   5 -13   2   33.84   13.99
  13   5  -2   30.38   10.49
  -5  13   2   50.63   12.69
 -13  -5   2   36.93   11.63
  13   5   2   33.43   12.68
  -5  13   2   59.32   12.12
 -13  -5   2   40.12    6.92
   5 -13   2   46.52   10.28
  -5  13   2   45.50   12.16
 -13  -5   2   45.81   10.08
  13   5   2   29.75   10.73
   5 -13  -2   42.21   11.76
  -5  13  -2   50.93   14.45
 -13  -5  -2   29.50   11.14
   5 -13   4    9.83   16.80
  -5  13   4   30.88   13.08
  13   5   4   28.52   12.64
  13   5  -4   31.67    8.85
  13   5  -4   21.68   10.72
  13   5   4   24.18   14.07
 -13  -5   4   26.30   10.63
   5 -13  -4   59.49   15.97
 -13  -5  -4   46.35   12.10
 -13  -5   4   34.80   12.14
  -5  13  -4   50.50   15.33
   5 -13   4   21.63   14.11
  13   5   4   39.70   13.96
  -5  13   4   15.10   14.76
  -5  13  -4   12.31    3.09
 -13  -5   4   17.58    9.29
   5 -13  -4   34.81   12.29
 -13  -5  -4   17.86   14.12
  -5  13   4   19.52   13.31
  -5  13  -4   33.30   16.01
   5 -13   4   20.23   11.02
  -5  13  -6   16.91   17.69
   5 -13   6    2.17   13.45
 -13  -5  -6    6.39   12.68
  -5  13  -6   -4.87   18.21
 -13  -5  -6    8.39   17.86
  13   5   6   26.19   16.49
  13   5  -6   -2.40   12.28
   5 -13   6   -3.25   17.23
  -5  13   6   10.77   14.75
 -13  -5   6   13.87   13.82
   5 -13  -6  -23.84   18.25
  -5  13   6   48.77   18.79
 -13  -5   6   -1.88   15.47
  13   5   6    4.36   18.74
 -13  -5   6   17.12   13.41
  13   5   6  -15.53   16.09
   5 -13  -6   -4.88   13.11
  -5  13   6   16.52   19.83
 -13  -6   1  231.28   15.78
  13   6   1  224.70   16.64
  13   6   1  231.11   15.06
   6 -13  -1  262.92   17.31
  13   6  -1  240.10   16.32
  -6  13  -1  261.32   16.39
 -13  -6   1  221.35   15.66
  13   6  -1  238.22   18.56
 -13  -6  -1  231.41   18.10
   6 -13   1  240.93   16.70
 -13  -6  -1  224.97   15.11
  -6  13   1  211.97   17.33
 -13  -6   1  227.19   18.31
  -6  13   1  246.02   18.01
  -6  13   1  222.71   17.20
  -6  13  -1  226.55   15.73
   6 -13  -1  223.91   19.05
   6 -13   3    4.96   16.51
  13   6  -3  -13.23    9.56
   6 -13   3    2.94   13.55
  13   6  -3   -2.63    5.11
   6 -13   3   -5.74   11.33
 -13  -6  -3   -5.73   12.18
 -13  -6  -3    4.66   12.04
  13   6   3    2.45   12.35
  -6  13  -3    6.09    6.24
  -6  13   3  -12.23   13.77
   6 -13  -3   -2.98   13.82
 -13  -6   3   -2.84   10.17
  -6  13   3   -8.57   11.72
  13   6   3   -1.18   13.41
  13   6   3   -3.05   11.74
  -6  13   3    6.78   11.84
 -13  -6   3    7.72   10.15
 -13  -6   3    3.09    5.55
   6 -13  -3   22.14   12.13
  -6  13  -3   15.55   15.75
  -6  13  -5   19.78   17.51
   6 -13   5   13.43   12.38
  13   6   5   20.73   17.12
  -6  13  -5    8.10   16.86
  13   6  -5   -0.37   10.37
   6 -13   5    8.81   16.76
  13   6   5   18.02   15.08
   6 -13  -5   50.46   17.26
  -6  13   5    6.96   16.53
 -13  -6   5    7.46   12.95
 -13  -6   5   16.31   11.93
  -6  13   5    6.47   18.44
 -13  -6   5   -0.51   13.24
  -6  13   5   11.01   12.78
  13   6   5   19.78   14.67
 -13  -6  -5   32.88   16.38
  -6  13   5   31.68   14.89
   6 -13   5   17.95   18.69
 -13  -6  -5   24.97   12.93
   6 -13  -5   24.48   12.81
  -6  13  -7  -16.37   18.83
   6 -13   7   17.59   15.37
  -6  13   7   15.50   16.09
 -13  -6   7   26.54   17.07
  13   6   7   38.40   16.98
 -13  -6  -7   11.14   13.92
 -13  -6  -7  -16.72   18.85
   7 -13   0   30.71   14.98
 -13  -7   0    1.86    9.38
  13   7   0    4.61    4.15
  13   7   0    7.61   12.30
   7 -13   0    6.71   11.48
 -13  -7   0    1.63   10.97
 -13  -7   0   -1.66    4.12
  -7  13   0  -12.87   10.86
  13   7   0    8.09   10.15
  -7  13   0  -13.70   13.02
 -13  -7   0   18.10   11.84
   7 -13   2   17.43   14.01
   7 -13   2   31.30   15.41
  -7  13  -2   15.90   10.08
  13   7   2   26.29   10.73
 -13  -7  -2   22.41   10.81
  -7  13   2   36.74   12.04
   7 -13  -2   18.40   12.02
 -13  -7   2   10.26   10.99
  -7  13   2   36.56   13.50
 -13  -7  -2   19.32   11.47
  13   7  -2   14.40    9.27
   7 -13  -2   39.62   14.48
 -13  -7  -2   37.30   12.84
  13   7   2    9.60   13.54
 -13  -7   2   22.25    7.07
   7 -13   2   16.07   10.74
 -13  -7   2   23.42    9.05
  -7  13   2   20.42   12.49
  13   7   2   26.21   10.72
   7 -13  -2   22.17   13.28
  -7  13  -2   51.12   15.66
  -7  13  -4   -2.21   16.27
   7 -13   4   23.60   17.58
  13   7  -4   14.04    8.11
   7 -13   4   11.50   15.36
 -13  -7  -4    8.40   14.55
  -7  13  -4    8.25    5.05
  -7  13   4   13.97   13.57
 -13  -7  -4   17.31   13.74
  -7  13   4  -29.17   15.80
 -13  -7   4    5.24    8.28
 -13  -7   4   18.89   10.85
  -7  13  -4    9.91    5.76
  13   7   4   -1.80   12.89
 -13  -7  -4    1.12   12.10
 -13  -7   4  -15.44   11.07
  -7  13   4    3.91   12.10
  13   7   4    4.58   14.32
   7 -13  -4    3.42   15.28
  13   7   4   28.67   14.68
   7 -13  -4   18.53   12.31
  -7  13  -4   16.00   15.07
   7 -13   4    9.25   11.76
  -7  13  -6   -9.06   18.47
   7 -13   6   -6.55   14.43
  -7  13  -6   28.94   18.81
  -7  13   6   14.76   15.78
  13   7  -6   34.35   12.88
 -13  -7  -6   32.77   18.38
 -13  -7  -6   20.77   13.94
   7 -13  -6   -3.48   19.04
  13   7   6   26.63   19.14
 -13  -7   6   28.86   13.70
   7 -13   6   30.67   18.78
 -13  -7   6    6.54   11.99
 -13  -7   6   34.64   14.97
  -7  13   6   50.22   21.13
 -13  -7  -6    7.78   17.36
  13   7   6   19.74   16.10
   7 -13  -6    5.61   12.66
   8 -13  -1   50.20   14.27
  13   8   1   45.89   10.82
   8 -13   1   62.52   15.55
 -13  -8   1   62.31    8.88
  13   8  -1   49.84   13.04
  13   8   1   45.20   12.48
 -13  -8  -1   22.47   12.57
  13   8   1   32.91    8.92
   8 -13  -1   44.40   12.12
  -8  13   1   58.00   12.64
  13   8  -1   48.44    9.70
 -13  -8   1   55.23   10.19
   8 -13   1   50.30   11.97
  -8  13   1   57.64   12.36
 -13  -8   1   58.40   12.05
 -13  -8  -1   53.80    8.78
  -8  13  -1   46.19   10.96
  -8  13  -3  106.34   18.33
 -13  -8   3   78.33    6.26
  13   8  -3   79.17    6.48
   8 -13   3  104.75   18.61
   8 -13   3  110.65   16.49
  13   8   3  116.31   14.11
  -8  13   3   96.79   15.55
  -8  13  -3  114.89   12.37
 -13  -8  -3  106.33   14.00
   8 -13  -3  117.19   14.49
   8 -13  -3  112.84   14.86
  13   8  -3  113.37   10.75
  -8  13   3   94.45   14.79
 -13  -8  -3  144.80   14.53
   8 -13  -3  112.46   16.18
   8 -13   3  135.95   13.94
  13   8   3  112.80   15.07
 -13  -8   3   92.46   11.31
 -13  -8   3  126.05   10.43
  13   8   3  132.31   15.87
 -13  -8   3  108.89    9.01
  -8  13   3   89.33   13.58
   8 -13   5   39.65   13.80
  -8  13  -5   47.55   19.75
 -13  -8   5   31.37   12.32
  13   8  -5   65.52   11.38
   8 -13   5   51.38   19.42
  -8  13  -5   31.76   17.50
   8 -13   5   34.83   17.54
 -13  -8  -5   59.30   16.93
  13   8   5   48.67   16.94
 -13  -8   5   50.13   12.82
   8 -13  -5   82.08   18.63
 -13  -8   5   51.05   11.60
  -8  13   5   76.16   18.21
  -8  13   5   68.60   13.12
  -8  13   5   89.08   16.34
 -13  -8  -5   65.23   16.60
   8 -13  -5   45.71   12.75
 -13  -8  -5   54.17   14.06
  -8  13  -7  -18.53   19.81
   8 -13   7   49.20   16.26
  -8  13   7    4.80   16.65
 -13  -8  -7    2.83   14.03
   9 -13   0  -13.12   15.03
  -9  13   0  -14.18   13.11
 -13  -9   0   11.57   11.10
 -13  -9   0    1.80    4.32
  13   9   0  -11.13   13.00
 -13  -9   0   -8.94   11.29
   9 -13   0   -7.19   11.60
  -9  13   0    0.45   11.77
  13   9   0   -1.23    9.32
 -13  -9   2    8.49    7.43
  -9  13  -2   24.96   11.30
 -13  -9  -2   10.39   10.32
 -13  -9  -2   10.16   12.03
 -13  -9   2    4.44   10.54
   9 -13  -2   24.97   13.10
  13   9   2   18.93   10.41
  -9  13   2   18.56   12.58
  13   9  -2   13.81    8.62
   9 -13  -2   -5.86   14.38
  -9  13   2   -0.55   13.53
 -13  -9  -2    7.74   12.64
   9 -13   2    9.38   12.21
  13   9   2   14.06   10.79
 -13  -9   2   10.43    8.85
  -9  13   2    6.27   11.43
  -9  13  -2   17.73   14.67
   9 -13  -2    2.62   13.21
  -9  13  -4   42.70   18.35
 -13  -9   4    3.59    6.40
  -9  13   4    7.36   13.95
   9 -13   4  -15.82   16.58
  13   9   4   18.80   13.68
 -13  -9  -4   10.33   14.46
  13   9   4   36.57   15.37
 -13  -9   4    0.97    7.76
  -9  13   4   -2.90   15.18
  13   9  -4    9.85    7.88
 -13  -9  -4  -16.47   15.91
   9 -13  -4   28.06   15.54
   9 -13   4  -26.97   18.01
  -9  13   4   18.56   12.11
 -13  -9   4   14.91    9.16
 -13  -9   4    8.26   11.33
 -13  -9  -4   -1.19   12.77
  13   9   4    9.74   13.99
  -9  13  -4   19.64    8.43
   9 -13  -4   24.82   13.20
   9 -13   4    0.52   13.24
  -9  13  -6    6.20   19.65
   9 -13   6   40.87   15.10
  -9  13  -6   -9.80   19.04
 -13  -9  -6   16.27   14.15
 -13  -9  -6   -4.26   17.98
   9 -13   6  -16.01   18.92
   9 -13  -6   -2.66   18.57
  13   9   6    6.33   19.44
 -13  -9   6   -1.04   12.94
 -13  -9  -6  -18.65   18.00
  13   9   6  -13.58   16.68
  -9  13   6   -3.07   16.09
  10 -13  -1  -19.66   12.76
  10 -13  -1  -39.56   14.90
 -13 -10   1    0.47   10.86
 -10  13  -1   34.11   15.89
  13  10   1    5.07    9.80
  10 -13   1  -17.13   15.65
  10 -13   1   -6.74   14.02
  13  10   1    4.12    8.53
 -13 -10   1   -4.81    7.23
 -13 -10  -1   -1.81    8.52
 -13 -10   1   -4.91   10.54
 -13 -10  -1   10.94   11.99
  13  10  -1  -15.09   12.57
  13  10   1   -9.21   12.29
  10 -13   1    3.75   12.12
  13  10  -1    7.00    8.10
 -10  13   1    6.18   12.19
 -10  13   1    6.19   12.68
 -13 -10  -1    1.07   12.56
 -10  13  -1    0.91   10.92
 -10  13  -3   69.28   17.55
  10 -13   3   64.24   18.93
  13  10  -3   88.29    9.13
  13  10   3  112.68   13.75
 -13 -10  -3   66.55   13.70
  10 -13  -3   88.03   15.44
 -10  13  -3  101.43   13.19
  10 -13  -3  104.99   15.98
 -10  13   3   85.80   16.69
 -13 -10  -3   66.28   13.35
 -10  13   3   96.23   12.96
  10 -13   3  107.43   14.39
 -13 -10   3   88.89    8.72
  13  10   3   98.66   14.78
 -13 -10   3   87.15   10.76
 -13 -10   3   85.04    9.11
  13  10   3   59.13   13.80
  10 -13  -3   78.23   14.56
 -10  13  -5   72.38   20.35
 -13 -10  -5   55.46   15.09
 -13 -10  -5   57.53   17.80
 -10  13  -5   46.50   18.92
  13  10  -5   70.76   11.16
  10 -13   5   64.72   21.37
  10 -13   5   39.10   18.50
  13  10   5   62.43   17.81
 -13 -10   5   38.45   11.62
  10 -13  -5   19.16   18.35
 -13 -10   5   67.68   10.95
 -10  13   5   50.25   12.96
 -10  13   5   50.99   16.46
 -13 -10  -5   60.88   17.15
  13  10   5   48.35   15.73
  10 -13  -5   83.91   14.16
  10 -13   5   83.16   15.50
  10 -13   7   14.35   17.09
 -13 -10  -7    9.91   15.33
  13  10   7   -4.18   17.60
  11 -13   0    9.84   15.67
 -13 -11   0    9.03   11.65
 -13 -11   0   -0.87    5.21
  11 -13   0   -3.55   12.21
  13  11   0   -5.01   12.60
 -13 -11   0  -14.20   11.08
 -11  13   0   -2.51   12.80
  13  11   0    5.20    8.47
 -11  13   0   12.36   14.03
  11 -13  -2   14.70   14.08
 -13 -11   2    0.45   10.15
 -11  13  -2    3.88   12.12
 -13 -11   2    8.36    6.31
  11 -13  -2   -8.60   14.76
  11 -13   2    4.41   14.22
 -13 -11  -2    7.76   10.53
  13  11  -2  -11.68   12.72
  13  11   2   -2.71   10.97
  11 -13  -2   23.41   13.09
  11 -13   2   20.99   13.33
 -11  13   2   23.99   14.06
 -13 -11  -2   -1.89   13.73
 -13 -11   2    0.77    9.91
 -11  13   2   -1.50   12.14
  13  11  -2    7.43    7.32
  13  11   2    3.04   10.47
 -13 -11   4   -2.71    8.68
 -11  13   4    9.90   14.98
 -11  13  -4  -21.87   19.04
 -13 -11  -4   -1.24   15.32
  11 -13   4    5.59   19.52
 -11  13   4   15.61   11.81
  11 -13  -4    4.95   14.14
 -13 -11   4   -2.08    6.62
  13  11   4   -0.66   15.13
  11 -13  -4   12.96   15.83
 -13 -11   4   -1.16    9.14
 -11  13   4    6.05   16.75
  13  11  -4   11.81    8.14
 -13 -11  -4   -0.78   15.74
 -11  13  -4   -6.04    9.21
 -13 -11  -4   19.00   13.50
  11 -13   4   -6.42   14.66
  13  11   4   20.70   14.65
 -13 -11   4  -17.71   10.85
  11 -13  -4    7.74   13.74
  11 -13   6   14.79   15.97
 -11  13  -6  -41.51   21.22
 -13 -11  -6  -10.36   18.57
 -13 -11  -6   17.52   18.14
 -11  13   6    9.66   16.94
 -13 -11  -6    5.87   15.23
  11 -13  -6   24.38   18.89
  13  11   6    4.63   19.79
  13  11   6    5.61   16.68
  12 -13   1   -2.40   14.08
  12 -13  -1  -11.37   15.83
  13  12  -1   15.39    7.62
  13  12   1    2.86   10.24
  12 -13   1   36.41   16.80
 -13 -12   1   12.13   10.73
 -13 -12  -1    4.36   12.24
 -13 -12  -1   -0.57    8.92
  13  12   1   10.03    9.05
  12 -13  -1   -5.16   13.73
  13  12  -1   11.42   12.28
 -13 -12  -1   13.83   13.04
  12 -13   1   17.02   13.20
 -13 -12   1    0.97   11.16
 -12  13   1   13.08   13.78
  13  12   1    4.89   12.98
 -12  13   1   -1.11   12.96
 -12  13  -1   -1.03   11.99
 -12  13  -1   26.74   15.46
 -12  13  -3   -5.60   17.65
  12 -13  -3   41.57   15.21
 -13 -12   3   -6.13    9.34
  12 -13   3  -11.49   17.69
 -12  13  -3   11.92   12.54
  12 -13  -3   14.57   15.73
  13  12   3    4.21   12.73
 -13 -12   3   -9.86   10.07
 -12  13  -3    3.40   10.99
 -13 -12  -3  -12.31   12.39
  12 -13  -3    7.28   13.44
 -13 -12   3    6.63    3.15
  13  12   3    2.63   13.20
 -12  13   3   13.90   15.01
  13  12  -3   19.87   10.20
 -13 -12  -3    0.62   12.87
 -12  13   3   17.24   12.35
  12 -13   3    9.73   14.04
  13  12   3    7.92   14.54
 -13 -12   3   -9.46    5.65
  12 -13  -5   -9.58   13.61
 -13 -12  -5   19.17   17.01
 -12  13  -5    7.50   19.90
 -12  13  -5    6.86   18.88
 -12  13   5   -1.56   16.23
 -13 -12   5  -10.45   10.99
 -13 -12  -5  -18.75   16.82
 -13 -12   5   -8.71   10.40
  12 -13  -5   26.90   18.45
  13  12   5    0.80   17.60
 -12  13   5   11.20   11.79
 -13 -12   5   15.30   10.68
  13  12   5   34.52   16.80
  12 -13   5   -2.00   15.54
 -13 -12  -5  -35.84   15.23
  13 -13   0  -19.20   16.08
 -13 -13   0    8.21    6.51
 -13 -13   0    0.53   11.94
  13 -13   0   -6.83   13.83
  13  13   0   18.26   13.05
 -13  13   0   16.26   12.26
 -13 -13   0   -5.45   12.89
  13  13   0   -5.20    8.24
 -13  13   0   -7.00   14.79
 -13  13  -2    1.50   17.14
  13 -13  -2   -8.58   15.43
  13  13   2    2.20   11.04
 -13 -13   2    4.18   10.36
  13 -13   2   19.08   13.72
 -13  13  -2   -1.10   12.69
  13 -13   2    0.67   15.14
 -13 -13  -2   -2.46   11.11
  13  13  -2    3.68    5.21
  13  13  -2    3.57   11.22
  13  13   2    2.46   11.20
  13 -13   2    5.88   18.05
 -13 -13  -2    5.34   13.97
 -13  13   2    8.47   15.10
 -13 -13   2   10.79   11.07
  13  13  -2    3.75   12.98
 -13  13   2   -3.13   13.34
  13 -13  -2  -10.93   15.14
  13 -13  -2  -22.92   14.75
 -13 -13  -4   52.14   14.85
  13 -13  -4   24.62   14.39
 -13  13  -4   40.70   20.89
  13 -13   4   27.83   20.73
 -13 -13   4   54.92   10.75
 -13 -13   4   29.23    6.69
 -13 -13  -4   53.07   15.71
  13  13   4   28.15   15.84
  13 -13  -4   25.01   17.11
 -13  13  -4   29.42   11.21
 -13  13   4   28.79   17.43
  13  13  -4   37.76   10.06
 -13  13   4   32.34   16.82
 -13 -13  -4   20.39   16.89
 -13  13   4   40.03   12.62
 -13 -13   4   30.58    7.48
  13 -13   4   14.85   15.16
  13  13   4   38.93   16.17
 -13 -13   4   40.46   11.71
  13  13   6   26.54   20.24
 -13 -13  -6  -10.23   16.20
 -13 -13  -6   13.16   18.55
  13 -13  -6   14.72   19.87
  13  13   6   -1.70   17.35
 -13  13   6    3.40   16.85
  13 -13   6   31.95   17.10
  14 -13  -1    0.69   15.86
  13  14   1   11.46   10.11
  14 -13   1    8.01   17.04
  14 -13   1   -8.97   14.85
 -13 -14  -1    9.50    9.22
 -13 -14   1   -9.07   11.87
 -13 -14   1    3.42    3.82
 -13 -14  -1    7.49   12.04
  13  14  -1    5.72   12.55
  13  14  -1   -4.78   12.01
  13  14  -1   10.78    6.58
  14 -13   1   -1.20   14.32
 -13 -14   1    9.06    3.52
 -13 -14  -1   -0.63   13.81
 -14  13   1    8.72   13.63
 -13 -14   1    1.06   12.20
  14 -13  -1   43.50   14.74
 -14  13   1   20.27   14.60
 -14  13  -1   39.26   16.49
 -14  13  -1   -9.23   13.56
  13  14   3    4.32   12.70
  14 -13  -3    7.07   14.87
 -14  13  -3    9.69   13.41
 -13 -14   3    3.61   11.74
  14 -13   3   27.94   16.92
 -13 -14   3   -7.11    9.83
 -13 -14  -3    1.07   13.80
 -14  13  -3    9.42   12.21
 -13 -14   3   -2.31    4.13
  13  14   3   -3.80   13.28
  14 -13  -3  -17.78   16.09
  14 -13  -3   22.92   15.03
  13  14  -3    0.43   10.81
 -14  13   3  -12.67   17.38
 -14  13   3  -14.21   12.84
  14 -13   3   26.79   15.38
 -13 -14   3   -2.20    2.67
 -13 -14  -3   -3.93   13.04
  13  14   3   14.09   14.57
 -14  13  -5  -22.01   22.23
 -14  13   5   -1.65   17.01
 -13 -14  -5   13.81   17.33
  14 -13  -5    1.67   18.13
  13  14   5    5.73   17.91
 -13 -14  -5   33.94   16.07
 -13 -14  -5   18.98   18.93
  14 -13   5    5.83   16.70
  13  14   5    5.69   16.89
  14 -12   0    8.49   15.68
  12  14   0   21.25   13.46
 -12 -14   0   16.12    7.93
 -12 -14   0    9.24   11.29
 -12 -14   0   21.88   12.57
 -14  12   0   17.29   13.65
  14 -12   0    1.75   13.70
  12  14   0    8.10   12.77
 -14  12   0  -14.46   15.01
  12  14   0    5.61    7.96
 -14  12  -2    3.80   17.10
 -12 -14   2   32.67   10.49
 -12 -14   2   15.75    4.67
  14 -12  -2   39.27   15.44
 -14  12  -2   13.70   13.04
  14 -12   2   42.54   14.95
  12  14   2   26.93   11.55
 -12 -14   2    9.04    3.95
 -12 -14  -2   41.86   12.13
  12  14  -2   21.94   11.33
  14 -12  -2   11.70   14.33
  12  14  -2   24.24   12.25
 -12 -14  -2   45.53   14.32
  14 -12  -2   28.01   14.91
 -12 -14   2   16.55   12.16
  12  14   2   15.67   11.64
 -14  12   2   24.96   14.16
  14 -12   2   35.43   14.41
  14 -12   2   43.13   18.17
 -14  12   2   26.89   12.42
  12  14   2   19.57   13.70
 -12 -14   4  198.39   16.81
  12  14   4  214.58   20.81
 -14  12  -4  206.86   23.49
  14 -12  -4  215.17   17.86
 -12 -14   4  162.97   12.83
 -12 -14  -4  242.22   19.30
 -12 -14   4  145.77   10.53
 -12 -14   4  189.07   14.30
 -12 -14  -4  185.07   19.77
 -14  12  -4  197.42   16.09
  12  14  -4  191.15   14.93
 -12 -14  -4  160.55   20.35
 -14  12   4  189.64   16.36
  14 -12  -4  222.66   20.95
  12  14   4  213.90   20.43
  14 -12   4  150.09   20.86
  14 -12   4  223.01   20.73
  12  14   6    0.86   17.28
 -14  12   6   -6.78   17.30
  14 -12  -6    4.52   18.85
 -12 -14  -6   28.24   18.08
  12  14   6   18.11   20.71
 -12 -14  -6  -21.57   16.79
  14 -12   6  -29.26   18.40
 -14  11  -1    7.71   12.43
 -11 -14   1   -2.35    6.49
 -14  11  -1  -14.18   16.31
 -11 -14   1    0.69    5.41
  14 -11  -1    5.56   15.13
  11  14  -1  -10.61   12.15
  11  14   1    2.23    8.98
 -11 -14  -1   -4.39    9.74
  14 -11   1   10.47   17.15
 -11 -14   1  -10.79   10.97
 -14  11   1    3.78   13.33
  11  14   1  -18.52   13.67
  11  14  -1    6.65    4.48
  11  14  -1   -9.72   11.94
 -11 -14  -1    7.93   11.07
  14 -11   1  -15.36   13.62
 -11 -14  -1   26.13   13.04
 -14  11   1  -18.25   13.60
 -11 -14   1   -8.06   12.29
  14 -11   1    7.56   13.51
  14 -11  -1   28.35   13.97
  11  14   1  -11.77   12.80
 -11 -14  -3   -8.01   12.11
  14 -11  -3   -9.62   13.46
 -11 -14   3   27.61   12.52
  14 -11   3   19.79   15.92
  11  14  -3    8.43   11.07
 -11 -14   3   21.13    8.27
 -11 -14  -3    1.08   13.46
 -14  11  -3   16.42   11.75
  11  14   3   13.17   13.65
  14 -11  -3    9.93   14.58
 -11 -14   3    3.21    5.99
  11  14  -3   22.72   10.61
 -14  11   3  -10.05   11.76
  14 -11   3    2.47   14.07
 -14  11  -3    1.19   12.75
 -14  11  -5   49.89   21.11
  11  14   5    6.97   16.71
 -11 -14   5   51.10   13.59
 -11 -14   5   26.13   11.71
  14 -11   5   38.63   18.35
  14 -11  -5   53.22   17.64
 -11 -14  -5   32.63   17.37
 -14  11   5   39.85   19.77
 -14  11   5    8.14   10.75
 -14  11  -5   26.57   10.37
 -11 -14  -5   19.30   16.80
  11  14   5   70.84   18.65
 -11 -14  -5   28.99   15.04
 -14  11   5   15.51   16.71
  14 -11   5   14.41   16.17
 -14  10   0   17.60   14.95
  10  14   0   18.67    7.21
  14 -10   0   39.70   15.69
  10  14   0   14.67   12.59
 -10 -14   0   18.01    8.61
  14 -10   0   42.15   14.07
 -10 -14   0   38.27   11.81
 -10 -14   0   23.42   13.00
 -14  10   0    7.09   12.77
  10  14   0    6.89   11.78
 -14  10  -2   13.24   15.73
  10  14   2   26.31   12.48
  14 -10  -2    3.13   13.43
 -14  10  -2    0.55   12.44
 -10 -14   2   11.71    5.78
 -10 -14  -2    6.19   11.11
 -10 -14   2   29.34    9.72
  10  14   2   17.93   11.88
  10  14  -2   27.90   11.97
  10  14  -2   41.33   12.00
  14 -10   2   -7.98   16.09
 -10 -14  -2   -5.07   12.59
  14 -10  -2   26.05   13.75
  14 -10   2   18.31   13.37
 -10 -14   2    9.68   11.86
 -14  10   2   25.99   12.26
  14 -10   2   23.89   14.15
 -14  10  -4  575.38   34.53
  14 -10   4  555.09   33.15
 -10 -14  -4  511.64   32.04
  14 -10  -4  531.95   32.59
  14 -10  -4  574.86   33.01
 -10 -14   4  537.33   28.26
 -14  10   4  579.84   34.15
 -10 -14  -4  575.41   33.45
  10  14  -4  577.00   28.98
 -14  10   4  563.06   28.87
 -10 -14   4  584.16   30.45
  14 -10  -4  554.67   29.47
 -14  10  -4  546.95   35.95
 -14  10  -4  552.67   29.55
  10  14   4  623.52   32.55
 -10 -14   4  563.14   27.90
 -10 -14  -4  539.10   31.41
  14 -10   4  535.74   32.28
  10  14   4  615.02   33.08
  14 -10   6  -38.08   18.22
 -14  10  -6  -18.50   22.32
  10  14   6  -31.18   21.07
  10  14   6  -10.69   17.01
 -10 -14  -6    1.74   18.25
  14 -10  -6    6.86   18.61
 -14  10   6   -8.77   16.32
 -10 -14  -6  -12.22   18.18
 -10 -14  -6  -23.96   16.52
 -14   9  -1   18.88   12.15
 -14   9  -1   15.96   15.88
   9  14   1   24.20   11.57
  -9 -14  -1   10.20   12.78
  14  -9  -1    4.45   14.09
  14  -9   1   22.37   14.97
  -9 -14  -1    9.28   10.44
  -9 -14   1   19.76   10.26
   9  14   1   12.23   12.51
   9  14  -1   33.45   12.13
  14  -9   1   28.24   13.72
 -14   9   1   12.20   13.08
  -9 -14   1   16.04   11.72
  14  -9   1   21.08   12.89
  -9 -14   1   24.71    8.12
  -9 -14  -1    4.39   10.64
 -14   9   1    8.33   12.60
  -9 -14  -3   18.13   12.51
  14  -9  -3   12.76   12.11
  -9 -14   3   14.14    8.06
  14  -9  -3   14.19   13.82
  -9 -14  -3    2.18   13.28
   9  14  -3   20.89   10.12
 -14   9  -3   16.54   11.62
  14  -9  -3   12.37   13.34
   9  14   3    9.42   13.11
  14  -9   3   11.88   15.72
  -9 -14  -3   24.06   14.47
   9  14  -3    3.00   10.61
 -14   9   3   13.59   10.30
  -9 -14   3   16.55    7.36
  14  -9   3    8.40   13.77
  -9 -14   3    2.30   12.67
 -14   9  -3   25.56   13.12
  14  -9   5    7.17   16.30
 -14   9  -5   29.99   10.34
 -14   9  -5   -3.83   20.01
  -9 -14   5    7.25   13.72
   9  14  -5   31.20   12.40
 -14   9  -5   48.22   19.49
   9  14   5   26.68   16.33
  -9 -14   5   16.46   12.25
  14  -9   5  -14.97   17.76
   9  14   5   -4.86   18.00
  -9 -14  -5    8.26   16.27
  14  -9  -5   44.20   16.75
 -14   9   5   11.57   18.00
  -9 -14   5   30.64    8.46
 -14   9   5   26.87    8.89
  -9 -14   5   20.63    6.49
  -9 -14  -5   41.13   15.13
   9  14  -5   17.56   10.70
  -9 -14  -5   12.57   16.63
 -14   9   7   20.37   16.92
 -14   8   0  120.25   17.28
   8  14   0  158.08   14.34
   8  14   0  157.30   10.56
  -8 -14   0  166.44   12.77
   8  14   0  172.98   15.80
  14  -8   0  118.87   15.96
  14  -8   0  130.29   17.67
  -8 -14   0  147.07   15.78
  -8 -14   0  191.30   14.32
 -14   8   0  184.27   15.91
 -14   8  -2  -16.95   17.20
  14  -8  -2    8.69   12.13
 -14   8  -2   13.31   11.85
   8  14   2   10.37   12.17
  -8 -14   2   -4.92    8.17
  -8 -14   2   -2.34   11.90
  -8 -14  -2   -4.53   11.64
  14  -8  -2  -13.55   14.05
   8  14   2    2.76   11.74
  14  -8  -2   10.75   12.67
  14  -8   2    1.70   13.06
   8  14  -2   -8.96   10.06
  -8 -14   2    1.35    8.45
   8  14  -2   -4.04   11.29
  14  -8   2    2.76   13.05
 -14   8  -2    3.98   11.85
  14  -8   2   -0.75   15.88
 -14   8   2   -7.02   11.08
  14  -8   4  114.95   16.45
  -8 -14   4  138.63   15.47
  14  -8  -4  112.55   16.61
 -14   8  -4  123.03   20.70
  14  -8  -4  140.66   12.03
 -14   8  -4  107.33   19.11
   8  14   4  115.22   15.93
  14  -8  -4   89.39   16.59
  -8 -14  -4  109.92   17.37
  -8 -14   4   75.91    6.22
   8  14   4  110.50   17.73
  -8 -14  -4   92.24   16.41
  -8 -14  -4  105.47   15.19
 -14   8   4  123.05   18.77
  -8 -14   4  122.92   12.54
  -8 -14   4   81.94    6.75
  -8 -14   4  122.34    9.40
  14  -8   4  113.80   18.13
 -14   8   4  108.14   10.62
   8  14  -4  112.90   13.00
   8  14  -6    2.75   14.41
  14  -8   6   13.53   17.01
 -14   8  -6    9.12   21.00
   8  14   6   12.70   17.10
  14  -8   6   73.37   20.48
 -14   8  -6   22.13   19.47
  -8 -14  -6   36.89   18.44
  14  -8  -6   57.80   17.93
 -14   8   6    0.75   15.43
   8  14   6   43.11   20.88
  -8 -14  -6   33.13   15.62
 -14   8   6   49.60   19.99
  -8 -14  -6   27.88   17.41
  -8 -14   6   19.92   14.34
 -14   7   1   63.83   13.38
 -14   7  -1   71.96   13.30
 -14   7  -1   81.45   16.21
  -7 -14  -1   74.31   11.38
  14  -7   1   57.51   12.92
   7  14   1   62.15   13.66
  14  -7  -1   50.30   13.71
  14  -7   1   73.98   16.73
   7  14  -1   52.56   11.96
   7  14   1   80.09   12.38
  14  -7   1   49.23   13.72
  -7 -14  -1   61.65   11.59
  -7 -14  -1   72.99   13.92
  -7 -14   1   60.65   12.99
  -7 -14   1   76.99   10.63
   7  14  -1   72.02   11.15
   7  14   3    5.61   14.06
 -14   7  -3    9.12   14.64
  14  -7   3   15.51   14.24
   7  14  -3   -3.57   11.04
  -7 -14   3    4.55    9.66
 -14   7  -3   18.21   12.81
  -7 -14   3   15.11    6.52
  -7 -14  -3   32.36   13.82
  14  -7  -3    3.05   13.12
   7  14  -3   19.96    9.17
  -7 -14  -3   -2.81   11.88
  14  -7  -3    7.34   10.27
 -14   7  -3   19.99   11.67
 -14   7   3   18.19   14.68
  -7 -14  -3    1.27   13.03
 -14   7   3    5.97    8.97
  14  -7   3   -1.17   13.51
  -7 -14   3   -0.48   12.85
  14  -7  -3   16.29   12.95
  14  -7   5   12.85   15.92
  -7 -14  -5   13.57   14.00
  -7 -14   5   30.80   14.26
 -14   7  -5   12.34   18.63
 -14   7  -5  -19.41   10.70
  14  -7  -5    2.79    5.67
   7  14   5   15.00   15.37
  -7 -14   5   -9.20   12.42
   7  14  -5   -8.11   12.52
  -7 -14  -5   14.95   16.42
  14  -7  -5   -2.75   15.65
  -7 -14   5    4.07    8.52
   7  14   5   -3.22   17.86
  14  -7   5   -9.69   18.42
  -7 -14  -5    8.86   15.31
 -14   7  -5    6.44   17.60
 -14   7   5   -3.96   17.90
   7  14  -5  -14.62   11.95
  -7 -14   5   -1.85    2.89
  -7 -14  -7   -5.15   17.54
  -7 -14  -7    4.08   16.40
  14  -7  -7   21.66   19.04
 -14   7   7   -8.40   16.20
 -14   6   0   22.78   13.94
  -6 -14   0    5.90    9.79
  14  -6   0   14.19   10.91
   6  14   0   27.44   11.02
  14  -6   0   31.54   13.77
   6  14   0   17.17    6.30
  -6 -14   0   17.64    9.96
   6  14   0    5.93   11.99
  -6 -14   0    4.98   11.72
  -6 -14   2    9.44    7.74
 -14   6  -2   28.83   15.35
  14  -6  -2    0.39   10.78
  -6 -14   2    8.33    9.46
   6  14   2   24.52   12.14
  -6 -14  -2   17.51   12.52
   6  14   2    6.70   11.61
  14  -6  -2   38.35   13.74
  14  -6  -2   23.88   11.58
 -14   6  -2    7.20   12.08
  14  -6   2  -10.55   13.04
 -14   6   2   -7.10   13.29
   6  14  -2    8.69   11.94
 -14   6  -2    0.98   11.39
  14  -6   2   14.90   12.94
  -6 -14   2   -6.14   12.22
 -14   6   2   -6.41   10.56
  14  -6   4   -5.11   14.16
  -6 -14   4    0.53   14.16
  -6 -14   4    0.76    4.25
 -14   6  -4  -15.52   16.98
 -14   6  -4   -3.46   16.01
  14  -6   4   -8.28   15.39
  -6 -14  -4  -14.22   14.65
   6  14   4   11.45   13.56
  -6 -14   4    9.59    4.96
   6  14   4   -5.42   15.56
  14  -6  -4   -6.29   14.05
 -14   6   4    2.05   15.24
   6  14  -4    0.92   11.57
  -6 -14   4   10.42   11.14
  14  -6  -4    4.55   13.61
 -14   6   4    0.19    6.13
  -6 -14  -4   -3.34   13.57
  14  -6  -4   -8.03    6.93
  -6 -14   4   -0.17    4.58
 -14   6  -4   -3.43   10.90
  -6 -14  -4   -0.61   12.16
 -14   6  -6    6.35   19.05
  -6 -14   6   -6.06   15.24
  14  -6   6  -19.11   17.21
 -14   6  -6   18.08   20.93
   6  14  -6   -5.94   15.17
 -14   6   6   10.50   14.75
   6  14   6  -25.25   16.74
  14  -6  -6   14.86   16.85
   6  14   6   25.10   19.83
 -14   6   6   19.89   18.73
  -6 -14   6   10.15   14.67
  -6 -14  -6  -16.20   18.24
  -6 -14  -6    0.77   16.03
  14  -6   6   -4.56   19.63
  -6 -14  -6   26.67   15.64
 -14   5   1  191.82   15.96
 -14   5   1  129.99   15.29
 -14   5  -1  147.03   17.85
   5  14  -1  181.54   13.34
  14  -5   1  140.61   15.38
   5  14   1  153.82   14.35
   5  14   1  156.47   12.61
 -14   5  -1  158.94   15.84
  -5 -14  -1  182.57   14.38
  -5 -14  -1  182.60   15.02
  14  -5  -1  155.05   16.47
   5  14   1  138.32   15.62
   5  14  -1  156.47   15.72
  14  -5  -1  165.37   15.87
  -5 -14   1  191.44   13.31
  -5 -14   1  154.74   15.74
  -5 -14   3   49.53   13.90
  14  -5   3   51.83   13.52
 -14   5  -3   65.20   15.04
  -5 -14   3   50.20   10.73
  14  -5   3   36.27   14.02
   5  14   3   46.07   14.13
  14  -5  -3   68.55   14.51
  -5 -14  -3   47.75   14.27
  14  -5  -3   54.14   12.93
   5  14  -3   38.26    8.44
 -14   5  -3   56.77   11.86
  -5 -14  -3   38.90   14.11
 -14   5   3   28.25   14.17
  -5 -14   3   49.92    7.13
   5  14   3   54.20   13.86
   5  14  -3   45.02   12.31
  -5 -14  -3   43.42   12.63
 -14   5   3   58.84    8.23
  14  -5  -3   41.65    9.05
  -5 -14   5  -13.06    8.36
  14  -5   5   28.36   15.67
 -14   5  -5  -22.06   18.51
  -5 -14   5    9.25   14.79
 -14   5  -5  -14.05   19.60
 -14   5  -5  -10.85   11.32
  14  -5   5    3.94   16.51
  -5 -14   5   -1.35    8.63
  -5 -14  -5   10.44   16.72
  -5 -14   5   -0.53   12.67
  14  -5  -5  -27.05   15.41
   5  14   5    8.97   15.18
   5  14   5   -0.80   17.87
  -5 -14  -5  -25.35   14.71
  -5 -14  -5  -17.59   14.66
   5  14  -5  -19.21   13.72
   5  14  -5    0.47   12.47
 -14   5   5  -13.57   17.64
   5  14  -7   18.75   17.02
 -14   5   7    3.42   19.07
  14  -5  -7   12.79   17.73
   5  14   7    5.76   16.74
  -5 -14   7    3.68   16.73
 -14   5   7    4.29   15.41
  -5 -14  -7   -4.90   16.52
  -5 -14  -7   33.99   16.86
 -14   4   0   86.47   14.77
  14  -4   0  101.69   12.16
   4  14   0   92.20   13.39
   4  14   0   85.63   12.16
   4  14   0   84.30    8.17
  -4 -14   0   95.53   11.73
  -4 -14   0   96.65   12.08
  14  -4   0   94.40   13.66
  -4 -14   0   76.87   13.13
 -14   4   0   66.75   13.19
   4  14  -2    4.13    8.09
 -14   4  -2   12.06   15.54
   4  14   2   -1.12   13.25
  -4 -14   2   -1.06    7.66
  14  -4   2   13.64   11.95
   4  14   2   -1.19   10.35
  -4 -14  -2   -2.35   12.19
  14  -4  -2  -21.90   13.40
  -4 -14   2   20.81   10.50
  14  -4  -2   12.16   10.69
 -14   4  -2    5.81   11.90
   4  14   2   10.34   12.08
 -14   4   2    1.53   11.58
 -14   4  -2   -0.93   12.39
  -4 -14  -2   13.23   12.53
   4  14  -2   23.33   12.35
  -4 -14   2   10.15   12.17
 -14   4  -2   14.91   11.76
 -14   4   2    8.31    9.45
 -14   4  -4   20.93   11.21
  14  -4  -4   20.64   13.44
  -4 -14   4   26.16    5.89
  14  -4   4   18.93   13.79
  -4 -14   4   37.29   14.94
  -4 -14  -4   10.37   14.38
  -4 -14  -4   24.57   13.18
  -4 -14   4   15.68   11.82
  14  -4   4   45.97   15.50
  -4 -14   4   27.01    5.85
   4  14   4   25.85   15.84
   4  14   4   -4.94   13.36
 -14   4   4   32.88   15.20
 -14   4   4    8.23    3.11
 -14   4  -4    8.05   15.57
  -4 -14  -4   28.85   14.44
  14  -4  -4   20.83   13.91
   4  14  -4   30.61   12.26
  -4 -14   4   15.28    3.54
 -14   4  -4   33.29   17.81
   4  14  -6    0.64   15.50
  -4 -14   6   16.71   14.93
  14  -4   6   29.65   17.81
   4  14   6   48.02   20.09
 -14   4  -6   26.99   20.55
  -4 -14   6   10.79    8.76
  -4 -14   6   -5.65   15.84
 -14   4  -6  -13.37   19.22
  -4 -14   6   -3.22   10.41
   4  14   6    1.75   17.47
  14  -4   6    0.90   18.83
  -4 -14  -6   16.93   18.55
 -14   4   6  -14.92   18.82
 -14   4   6   -8.55   16.84
 -14   4  -6    5.18   10.69
  -4 -14  -6   22.20   15.83
  -4 -14  -6   -0.73   15.66
  14  -4  -6   33.10   15.74
   4  14  -6  -11.81   12.89
   4  14   6   -6.73   16.00
  14  -3   1  492.87   29.25
  -3 -14  -1  532.16   29.57
   3  14   1  552.14   28.20
 -14   3   1  493.77   29.82
 -14   3  -1  490.94   30.56
   3  14  -1  538.41   29.99
  14  -3  -1  554.09   30.61
  -3 -14   1  510.08   29.98
 -14   3   1  455.78   29.42
 -14   3  -1  480.87   31.27
   3  14  -1  526.37   28.36
   3  14   1  539.74   29.30
  14  -3   1  497.86   30.17
  -3 -14   1  526.31   28.22
  -3 -14  -1  523.69   29.12
  -3 -14   3   29.01   11.69
  -3 -14   3  -15.87   13.69
  -3 -14   3    8.63    3.24
  14  -3   3    2.21   13.23
   3  14   3   17.84   12.04
  -3 -14  -3   -2.14   11.38
  14  -3  -3    0.54   13.01
  -3 -14  -3   20.73   13.63
 -14   3  -3    8.32   13.86
  14  -3  -3    6.94   11.08
   3  14   3   21.34   13.81
  -3 -14   3    7.49    6.22
   3  14   3    3.55   13.56
 -14   3   3    9.35   13.75
   3  14  -3    7.31    6.85
  -3 -14   3    8.13    3.29
   3  14  -3   19.12   12.54
 -14   3   3    9.02    5.78
  -3 -14  -3   13.38   13.08
  -3 -14  -5   14.91   16.20
  14  -3   5  -12.77   15.57
  -3 -14   5   12.48   13.89
  -3 -14   5   -3.15   15.43
   3  14  -5    2.24   13.64
  -3 -14   5   -9.28    8.99
 -14   3  -5    1.54   17.32
 -14   3  -5   -7.44   19.94
 -14   3  -5    6.85   11.04
  14  -3   5    0.77   15.97
   3  14   5    0.75   15.46
  14  -3  -5    8.38   13.42
   3  14   5   26.33   16.82
 -14   3   5   -1.43   16.91
  -3 -14  -5   25.67   14.53
  -3 -14  -5   -3.32   13.95
   3  14  -5   -7.12   12.89
   3  14   5   14.21   14.89
 -14   3   7   27.59   20.15
  14  -3  -7   14.55   16.85
  -3 -14   7   10.04   17.41
   3  14   7   65.40   17.26
 -14   3   7   50.58   18.98
   3  14  -7   40.60   18.02
 -14   3   7   36.65   15.14
  -3 -14  -7   29.74   16.83
  -2 -14   0  181.90   13.37
  14  -2   0  149.09   13.14
 -14   2   0  150.50   15.93
   2  14   0  155.45   11.09
   2  14   0  152.50   13.50
  14  -2   0  153.07   15.39
   2  14   0  150.35   15.60
  -2 -14   0  141.41   16.07
 -14   2   0  147.62   14.97
 -14   2   0  154.34   16.33
 -14   2   2   42.76   10.24
  -2 -14   2   61.08   11.85
  -2 -14  -2   85.64   13.17
 -14   2  -2   54.23   12.60
   2  14  -2   73.20    8.53
  14  -2  -2   63.47   13.99
 -14   2  -2   54.50   16.31
  14  -2   2   46.04   12.73
   2  14   2   53.71   11.57
 -14   2   2   69.42   13.36
  14  -2  -2   44.31   10.08
  -2 -14   2   62.67    8.54
 -14   2  -2   50.65   12.20
   2  14   2   61.42   13.74
  -2 -14  -2   56.31   13.73
   2  14  -2   67.46   12.95
   2  14   2   57.64   11.89
  -2 -14   2   66.45   14.33
  -2 -14   4   -1.50    7.27
  -2 -14   4  -26.02   15.06
 -14   2  -4   -3.26   11.22
  14  -2   4  -13.08   13.83
  -2 -14  -4   25.68   12.82
 -14   2  -4    3.26   14.54
  -2 -14   4   -3.56   12.37
   2  14   4   -3.76   14.16
  14  -2  -4   -6.32   13.08
  14  -2   4    7.10   14.55
  14  -2   4  -13.75   12.20
 -14   2  -4   14.36   17.69
  14  -2  -4  -12.61   12.12
   2  14   4   15.04   15.96
 -14   2   4   24.82   14.56
  -2 -14  -4   20.94   15.15
  -2 -14  -4   -6.13   13.58
   2  14   4   16.99   13.31
   2  14  -4    5.61   13.03
   2  14   4    6.24   13.93
  14  -2   6  -19.33   16.74
  -2 -14   6  -28.85   11.31
   2  14   6  -10.12   19.79
   2  14  -6  -13.58   16.04
 -14   2  -6   50.32   21.06
   2  14   6  -25.22   17.87
  -2 -14  -6   10.29   15.64
  -2 -14   6   -1.37   15.08
  14  -2   6   31.92   19.14
  14  -2  -6    3.64   14.17
  14  -2   6   10.50   13.19
 -14   2  -6    9.68   18.73
  -2 -14  -6  -11.85   17.63
  -2 -14   6   -8.30   16.66
 -14   2   6   -4.75   18.14
 -14   2   6   15.88   16.27
   2  14   6  -18.41   16.74
 -14   2  -6  -22.41   10.96
  -2 -14  -6  -10.66   15.69
   2  14  -6  -18.13   13.50
 -14   1  -1  348.02   24.65
  14  -1   1  377.71   23.17
  -1 -14  -1  408.76   24.80
   1  14  -1  385.85   20.31
 -14   1   1  364.65   24.68
  -1 -14   1  379.78   20.38
  14  -1  -1  381.59   24.37
  14  -1   1  416.00   24.67
 -14   1  -1  382.32   24.17
 -14   1   1  384.58   24.05
   1  14  -1  450.56   25.03
  -1 -14  -1  352.95   24.30
  -1 -14   1  384.18   24.91
 -14   1   1  435.63   24.02
 -14   1  -1  370.09   25.89
   1  14   1  393.40   22.56
   1  14  -1  417.60   22.16
   1  14   1  380.28   23.95
  -1 -14  -1  374.39   23.78
  -1 -14   1  419.27   22.45
  -1 -14   3   -4.53   14.40
 -14   1  -3   -4.80   13.11
  14  -1   3   -8.06   12.14
  -1 -14   3   40.03   12.87
  -1 -14  -3   -4.81   12.13
   1  14   3   -2.06   12.65
  14  -1  -3   -6.09   12.27
  14  -1  -3   16.62   10.22
  -1 -14  -3   -1.14   13.08
   1  14   3   11.15   14.33
   1  14   3   -8.50   12.85
 -14   1   3  -21.42   12.98
  -1 -14  -3    9.00   12.42
  -1 -14   3    0.16    6.04
  14  -1   3   -4.20   12.62
   1  14  -3   18.16   12.41
 -14   1   3    1.68    3.93
 -14   1  -3   -8.87   11.63
   1  14  -3    4.73    5.56
  -1 -14   5   32.29   14.21
  -1 -14   5   19.57    9.69
   1  14  -5   19.30   14.60
  -1 -14   5   -4.11   16.32
 -14   1  -5  -18.20   18.11
  -1 -14  -5   -4.50   16.27
   1  14   5   43.25   15.93
  14  -1   5   40.45   15.40
  14  -1   5    3.76   15.81
  14  -1  -5   17.65   12.82
 -14   1  -5    4.65   19.45
 -14   1  -5   20.34   11.61
  14  -1   5    9.88   12.59
  -1 -14  -5   -7.33   14.11
   1  14   5   11.21   16.90
 -14   1   5   26.38   14.29
 -14   1   5   16.21   16.42
  -1 -14  -5    6.45   14.34
   1  14   5   17.30   14.30
   1  14  -5  -11.14   13.87
   1  14  -7   11.34   18.19
  -1 -14   7   -8.09   17.53
 -14   1   7   -4.52   18.15
 -14   1   7  -38.79   21.02
   1  14   7  -17.52   16.58
  -1 -14  -7  -17.80   15.71
  14  -1  -7    6.67   15.56
 -14   1   7   -6.81   14.15
 -14   0   0   42.74   11.54
   0  14   0   44.38   10.50
   0 -14   0   39.06    8.18
   0 -14   0   40.12   10.30
   0  14   0   59.69    8.61
  14   0   0   38.64    9.41
  14   0   0   34.32   13.11
   0  14   0   47.68   12.52
 -14   0   0   47.85   13.52
   0 -14   2   53.32   13.80
   0  14   2   46.49   11.15
  14   0   2   39.36   12.69
 -14   0   2   56.79    9.70
   0 -14   2   40.18   11.73
 -14   0  -2   38.28   12.43
  14   0   2   26.30   11.77
  14   0   2   51.48   12.38
   0  14   2   36.14   11.21
   0 -14  -2   46.42   12.81
  14   0  -2   27.72   12.59
   0 -14   2   49.49    6.66
   0  14  -2   42.39    7.93
   0 -14  -2   19.56   11.30
 -14   0  -2   37.12   11.58
   0  14   2    6.15   12.85
  14   0  -2   39.21    8.92
 -14   0  -2   27.49   12.80
 -14   0   2   14.46   12.40
   0 -14  -2   34.85   13.20
   0  14  -2   35.24   12.91
   0 -14   4   -5.85    8.34
   0  14   4    7.22   12.26
   0 -14   4   -3.92   15.58
   0 -14   4    9.41   13.32
 -14   0  -4    3.91   11.57
  14   0   4    4.36   13.98
  14   0  -4   15.50   13.19
   0  14   4    3.16   13.85
   0 -14  -4   -0.66   14.19
  14   0   4   -2.71   12.95
   0  14   4   -4.85   15.71
   0  14   4  -18.40   13.48
  14   0  -4   19.71   10.54
 -14   0  -4  -12.64   17.39
   0 -14  -4  -11.45   12.93
   0 -14  -4   -1.77   13.10
 -14   0  -4    1.91   15.21
   0  14  -4   -5.05   13.33
 -14   0   4   -6.22   13.89
   0 -14   6   11.98   11.77
   0  14  -6   11.53   16.45
  14   0   6    2.42   16.71
   0 -14   6    9.82   17.74
   0 -14   6    5.08   16.08
  14   0  -6   -6.01   13.51
   0  14   6   -3.49   17.97
  14   0   6  -14.15   18.50
  14   0   6    7.77   14.18
 -14   0  -6   -7.86   19.52
 -14   0   6   11.02   15.17
 -14   0   6   13.56   17.58
   0 -14  -6    6.07   14.98
 -14   0  -6   -5.56   11.54
   0  14   6    1.45   15.83
   0  14  -6   34.82   14.58
 -14   0  -6   -1.01   20.95
   1 -14  -1   31.37   11.43
 -14  -1  -1   35.61   11.39
 -14  -1  -1   24.96    9.67
 -14  -1   1   30.99   11.42
  14   1   1   21.14   10.00
  -1  14   1   34.75   11.67
 -14  -1   1   20.58   12.45
  -1  14  -1   42.98    8.81
   1 -14   1   46.14    7.57
  -1  14   1   37.78   10.50
   1 -14  -1    8.37   12.54
 -14  -1  -1   30.91   12.82
  14   1  -1   29.96    7.65
  14   1  -1   34.44   12.95
  -1  14   1   30.66   12.48
  -1  14  -1   10.13   11.95
   1 -14  -1   42.81   12.27
 -14  -1   1   36.52   11.01
  -1  14  -1   38.18    7.17
  14   1   1   33.56   12.47
   1 -14   1   22.63   13.37
 -14  -1  -3    5.36   11.32
   1 -14   3    2.44   15.64
 -14  -1   3   27.37   13.02
  14   1   3   26.93   12.40
  -1  14   3   32.34   13.03
   1 -14   3   33.26   12.82
 -14  -1  -3   16.00   12.93
  -1  14  -3   20.71    5.51
  14   1  -3   23.32    8.49
  14   1   3   29.83   11.75
   1 -14  -3   17.44   13.79
  -1  14   3   23.83   13.22
 -14  -1   3   12.31    2.72
   1 -14  -3   22.78   12.78
   1 -14   3   36.96    8.13
   1 -14  -3   36.95   11.83
  14   1   3    5.50   12.40
  -1  14  -3   55.36   13.62
 -14  -1   3   12.90    3.02
  14   1  -3   20.68   12.10
  -1  14   5  -11.31   13.92
   1 -14   5   19.88   10.62
   1 -14   5   -5.16   17.36
  14   1   5    8.26   13.58
  -1  14   5   -3.77   16.45
  14   1  -5  -10.78   11.90
   1 -14   5   -5.88   15.18
  14   1   5   27.48   16.99
 -14  -1  -5   11.16   16.56
 -14  -1  -5   24.10   12.14
  -1  14   5   -5.66   17.54
 -14  -1   5   12.95   12.80
 -14  -1   5   24.75   15.99
 -14  -1  -5    9.32   18.99
   1 -14  -5   25.90   14.23
  -1  14  -5   19.99   15.15
  -1  14  -5   25.56   15.79
 -14  -1   7   -9.97   18.89
  -1  14  -7  -36.66   18.92
  14   1  -7  -11.07   14.43
   1 -14   7   -4.26   18.14
 -14  -1   7   14.19   17.59
  -1  14   7   -6.31   16.97
   1 -14  -7    0.70   15.28
  14   2   0  432.03   24.41
   2 -14   0  477.04   25.27
  -2  14   0  453.61   25.40
  14   2   0  474.77   27.14
 -14  -2   0  455.99   26.59
  -2  14   0  470.61   26.03
   2 -14   2   38.67   14.89
  14   2   2   31.88   12.32
  -2  14  -2   15.37    7.48
 -14  -2   2   26.26    9.11
  14   2   2   26.38   10.91
 -14  -2   2   16.46   13.09
  -2  14   2   18.53   12.09
   2 -14   2    6.14   12.35
  14   2  -2   15.90    6.59
   2 -14  -2   28.14   13.88
  14   2  -2   12.60   11.82
  -2  14  -2   23.45    7.08
  -2  14   2   15.47   11.56
 -14  -2   2    1.64    5.65
   2 -14   2    8.04    8.12
  14   2   2   16.26   12.88
  -2  14   2   11.07   12.57
 -14  -2   2   11.68   11.30
   2 -14  -2   20.25   12.42
  -2  14  -2   33.23   12.88
 -14  -2  -2   28.55   12.16
 -14  -2  -2   13.00   11.32
  14   2  -4    0.64    9.19
   2 -14   4    3.52   16.39
 -14  -2  -4   20.56   14.61
   2 -14   4  -11.93   14.35
 -14  -2  -4    1.03   11.84
  14   2  -4  -10.38   12.55
  14   2   4   14.68   14.45
  -2  14   4  -12.94   13.89
  14   2   4    1.15   13.04
  -2  14   4   -1.40   15.46
 -14  -2   4   32.50   13.65
  -2  14   4    3.98   13.51
  -2  14   4    4.87   13.40
   2 -14  -4    1.69   12.79
  14   2   4   31.51   13.26
  -2  14  -4   29.52   14.99
   2 -14   4   10.25    9.22
  -2  14   6    1.45   15.44
   2 -14   6   -7.51   11.94
  -2  14  -6   19.07   17.50
   2 -14   6   19.69   18.94
 -14  -2  -6   -1.02   20.55
 -14  -2  -6  -13.80   18.87
   2 -14   6  -26.02   17.62
  14   2  -6   10.06   12.48
  -2  14   6   35.96   18.02
  14   2   6   16.72   18.94
 -14  -2   6    3.42   14.79
  14   2   6   14.90   14.32
 -14  -2   6    4.98   16.87
   2 -14  -6   -9.45   18.17
   2 -14  -6    3.20   14.69
 -14  -2  -6   30.36   12.16
  -2  14  -6   24.79   16.53
   3 -14   1  109.08   16.59
  14   3  -1  132.77    9.17
  14   3  -1  152.33    9.38
 -14  -3  -1  152.12   14.34
   3 -14  -1  152.16   13.83
  14   3   1  158.38   16.04
  14   3   1  139.53   11.92
 -14  -3   1  135.86   15.86
   3 -14   1  171.72   12.35
 -14  -3  -1  128.74   12.56
  -3  14   1  175.40   14.40
 -14  -3  -1  189.20   15.63
  -3  14   1  173.23   15.70
  -3  14  -1  157.64   12.05
  14   3  -1  157.77   14.29
  -3  14  -1  171.92   16.00
  -3  14  -1  138.86   11.93
   3 -14  -1  169.94   16.12
  -3  14   1  167.46   14.56
 -14  -3   1  164.12   13.84
  14   3   1  157.26   14.50
   3 -14   3    3.95   15.06
 -14  -3   3    2.14    3.84
  14   3   3    4.81   12.00
 -14  -3  -3   13.74   11.58
   3 -14   3    6.08   13.50
 -14  -3   3  -13.21   12.97
  14   3  -3   10.35   11.15
  -3  14   3   -5.52   13.34
 -14  -3  -3   16.59   13.37
  14   3   3   -8.42   12.98
  14   3   3    9.71   11.83
  14   3  -3   -2.71    6.95
  -3  14   3    3.13   12.27
 -14  -3   3    4.32   11.84
 -14  -3   3   -4.51    3.10
   3 -14   3   -8.50    9.14
   3 -14  -3    8.33   12.32
  -3  14  -3   -4.13    5.82
   3 -14   5   29.97   11.19
   3 -14   5   17.51   17.65
  14   3   5  -20.55   15.48
  -3  14   5    6.13   16.07
 -14  -3  -5   25.01   16.67
   3 -14   5    1.38   15.51
  14   3  -5   14.55   11.13
 -14  -3   5   19.99   12.38
 -14  -3   5   16.56   15.65
  14   3   5   50.71   14.61
  -3  14  -5    5.50   15.35
 -14  -3  -5    3.26   12.45
  14   3   5   42.85   16.35
   3 -14  -5   30.90   13.95
  -3  14   5    2.69   14.80
  -3  14   5    8.36   13.73
  -3  14  -5   22.77   16.79
 -14  -3  -7   32.09   13.15
   3 -14   7   35.71   18.93
 -14  -3   7  -22.01   18.00
  14   3   7  -18.62   16.32
  -3  14  -7    8.92   18.87
  -3  14   7   -9.44   16.17
  -3  14  -7  -21.41   17.52
   4 -14   0    1.29   10.21
 -14  -4   0   -3.62   10.37
  14   4   0   10.86    6.15
  14   4   0   25.05   12.43
  -4  14   0    9.25    9.88
 -14  -4   0    3.03   11.99
  -4  14   0   24.49   10.05
  14   4   0   -5.01   10.86
   4 -14   0    2.64   13.69
   4 -14   2   46.49   15.85
  14   4   2  104.36   12.95
  -4  14   2   84.20   12.66
  -4  14  -2   81.61    9.52
   4 -14  -2   99.64   12.06
 -14  -4  -2   73.07   11.97
  14   4  -2   48.02    5.00
 -14  -4  -2   69.10   12.62
 -14  -4   2   81.60   13.06
  -4  14   2   91.20   13.40
  14   4   2   82.22   14.19
  14   4  -2   71.91   11.85
 -14  -4   2   75.71    7.55
   4 -14   2  104.55   10.42
  -4  14   2   89.05   13.11
 -14  -4   2   58.60   11.43
  14   4   2   65.32   11.49
   4 -14  -2   59.33   13.12
   4 -14   2   80.43   14.20
  -4  14  -2   67.40   14.68
  -4  14  -2   64.28    8.64
   4 -14   4   -0.76   16.71
  14   4   4  -27.17   14.38
   4 -14   4   -5.11   13.92
 -14  -4  -4    2.45   15.01
  14   4  -4   -6.47    8.45
  14   4   4   -1.22   14.09
 -14  -4   4   -6.76   11.40
 -14  -4  -4  -15.67   12.36
  -4  14   4   38.03   15.06
 -14  -4   4    0.91    9.30
 -14  -4   4   11.55   12.35
  -4  14   4   22.51   13.76
  -4  14   4  -23.68   13.52
  14   4  -4   -3.15   10.77
   4 -14  -4   -2.14   12.47
  14   4   4   -6.15   12.84
   4 -14   4    8.31   10.53
  -4  14  -4  -10.12   15.71
  14   4   6   41.40   19.52
   4 -14   6   23.83   13.46
   4 -14   6   30.99   19.19
  -4  14   6   30.16   16.05
 -14  -4  -6   13.71   18.82
  14   4  -6    5.22   12.24
   4 -14   6    9.69   17.69
 -14  -4   6    9.89   13.55
   4 -14  -6    5.21   18.22
  -4  14   6   17.77   18.76
 -14  -4   6   27.09   14.37
  -4  14   6   29.08   20.20
 -14  -4   6   17.30   16.26
  14   4   6    0.70   15.18
   4 -14  -6   23.27   14.11
  -4  14  -6    5.63   17.90
  -4  14  -6   -6.81   17.77
 -14  -4  -6    9.32   12.52
  14   5   1   -5.34   10.93
 -14  -5  -1  -10.67    8.34
 -14  -5  -1   -0.40   10.18
  14   5   1   10.76    8.08
   5 -14  -1    8.33   10.79
   5 -14   1    2.28   10.01
 -14  -5   1   -0.32    8.98
 -14  -5   1    9.02   12.87
  14   5  -1    1.78   10.21
  -5  14   1   -2.71   10.71
  -5  14   1    3.26   11.39
  -5  14   1    9.91   11.57
  -5  14  -1    8.34    8.67
  -5  14  -1    7.83    9.24
 -14  -5   1   13.19    9.84
   5 -14  -1    6.25   13.21
   5 -14   3   34.42   14.18
   5 -14   3   43.37   16.99
 -14  -5  -3   24.60   11.82
 -14  -5  -3   39.00   12.67
  14   5  -3   28.61    5.63
  14   5   3   35.29   12.46
  -5  14   3   27.57   14.17
 -14  -5   3   28.26   11.55
  14   5   3   22.76   13.35
  14   5  -3   14.71   10.77
  14   5   3   27.11   11.96
  -5  14   3   38.92   12.49
 -14  -5   3   19.24    5.21
   5 -14   3   22.78   10.68
   5 -14  -3   42.60   12.74
  -5  14  -3   33.71    6.69
  -5  14  -3   58.96   14.92
 -14  -5   3   31.81   11.22
   5 -14   5   33.32   12.98
   5 -14   5   25.58   18.92
  14   5   5   14.91   14.76
  -5  14  -5   42.30   17.29
 -14  -5  -5   13.15   16.42
   5 -14   5   35.18   16.65
  14   5  -5   12.41   10.70
  14   5   5   35.78   17.49
 -14  -5   5   24.08   13.28
  -5  14   5   62.06   16.82
   5 -14  -5   13.31   17.21
 -14  -5   5   19.79   11.93
  -5  14   5   59.67   19.04
  -5  14   5   -1.38   15.21
 -14  -5   5   38.09   14.96
  -5  14   5   30.82   13.72
  14   5   5   39.69   15.32
 -14  -5  -5   38.66   13.62
   5 -14  -5   24.08   13.45
  -5  14  -5   54.97   18.17
   5 -14   7  -16.77   14.91
  -5  14   7    2.38   16.51
 -14  -5  -7  -31.76   14.11
 -14  -5   7   -4.41   17.84
  14   5   7   16.33   16.59
  -5  14  -7   14.51   17.93
   6 -14   0  101.34   15.51
  14   6   0  101.54    7.33
  14   6   0   88.89   14.79
   6 -14   0  138.04   13.58
 -14  -6   0  105.45   11.61
 -14  -6   0  106.45   12.47
  -6  14   0  115.17   13.01
  -6  14   0  123.74   13.07
  14   6   0   99.72   12.34
 -14  -6   0  117.24   13.78
  -6  14   0   99.58   15.24
  14   6   2  234.05   17.76
   6 -14   2  286.38   17.90
   6 -14   2  228.98   22.43
 -14  -6  -2  241.05   17.93
   6 -14   2  262.96   19.53
  14   6  -2  236.67   17.60
   6 -14  -2  291.69   19.29
 -14  -6   2  232.80   17.04
  14   6   2  239.52   18.85
  -6  14  -2  260.69   17.06
 -14  -6   2  251.73   19.13
  -6  14   2  284.34   19.88
   6 -14  -2  267.87   19.89
 -14  -6   2  268.58   15.66
  -6  14   2  262.74   19.63
  14   6   2  256.86   20.48
 -14  -6  -2  306.77   19.40
  -6  14   2  275.58   20.02
  -6  14  -2  253.99   15.88
  -6  14  -2  286.03   21.39
  -6  14   4  -18.13   13.30
  14   6   4    3.08   12.80
   6 -14   4   -9.53   15.36
 -14  -6  -4    7.31   14.13
  14   6  -4    1.63   10.63
  14   6   4    5.59   14.23
  -6  14   4   13.16   14.60
   6 -14  -4  -12.67   14.75
 -14  -6   4   -6.30   10.73
  -6  14  -4   -5.69    4.76
 -14  -6  -4  -27.97   13.21
  -6  14   4   -2.13   12.65
  -6  14  -4    1.11    4.33
  14   6  -4    8.14    7.84
 -14  -6   4   -7.87   11.96
  14   6   4   19.19   14.48
   6 -14   4  -17.08   18.04
 -14  -6   4    0.78    8.47
   6 -14  -4   19.31   12.72
   6 -14   4   -5.66   11.42
  -6  14  -4   -3.66   16.78
   6 -14   6   34.69   18.66
   6 -14   6   26.05   13.90
 -14  -6  -6   55.12   14.29
 -14  -6   6   39.26   13.38
  14   6  -6   68.04   12.78
 -14  -6  -6   44.44   19.26
  14   6   6   -6.23   19.56
  14   6   6   63.61   17.41
   6 -14  -6   55.02   18.86
  -6  14   6   22.71   18.88
  -6  14   6   12.08   16.30
 -14  -6   6   57.78   14.49
  -6  14  -6   32.11   18.97
  -6  14   6   90.27   21.53
 -14  -6   6   41.14   15.95
 -14  -6  -6    8.86   17.94
  14   6   6   65.99   17.06
   6 -14  -6   51.53   13.75
  -6  14  -6   26.86   18.98
  14   7   1   23.97   10.86
  -7  14   1   43.40   11.78
 -14  -7   1   38.12    9.76
  14   7   1   42.85    8.72
   7 -14  -1   60.74   11.70
  -7  14  -1   45.03   10.07
  14   7  -1   50.60   12.69
 -14  -7  -1   58.74   12.62
 -14  -7   1   43.83   10.12
  -7  14   1   31.45   12.40
   7 -14   1   42.29   11.49
  14   7  -1   39.85   10.59
  -7  14   1   70.72   12.78
 -14  -7  -1   28.52    8.57
  -7  14  -1   38.74   10.86
   7 -14  -1   45.28   14.28
  -7  14  -3    1.17    6.94
   7 -14   3  -13.77   16.89
 -14  -7  -3   -0.49   12.27
  -7  14  -3   -1.57   10.20
   7 -14  -3   49.13   12.95
   7 -14   3   -5.71   14.46
 -14  -7  -3   19.65   12.06
  14   7  -3    9.33    9.86
  14   7   3    5.54   12.92
  14   7   3   -3.18   11.92
   7 -14  -3   -0.64   13.96
  -7  14   3    3.09   14.47
 -14  -7   3   13.13   10.48
  14   7  -3   -0.69    3.44
  14   7   3   31.23   13.88
 -14  -7   3   12.69    9.78
   7 -14   3   -5.04   11.34
 -14  -7   3   10.15    6.58
  -7  14   3   11.83   11.66
   7 -14  -3    4.70   12.56
  -7  14  -3   11.19   15.91
  -7  14  -5   91.01   20.13
   7 -14   5   52.38   14.80
 -14  -7   5   83.72   13.75
  -7  14  -5  120.36   19.13
   7 -14   5   35.61   19.74
  14   7  -5   92.80   11.86
  14   7   5   78.69   16.71
   7 -14   5  101.49   18.76
 -14  -7  -5   77.38   18.27
  14   7   5   70.70   18.49
   7 -14  -5   59.15   18.47
  -7  14   5   98.78   18.43
 -14  -7   5   80.96   12.43
 -14  -7  -5   57.66   17.41
 -14  -7   5   58.04   13.94
  -7  14   5   91.96   14.66
  14   7   5   89.43   17.65
 -14  -7  -5  100.96   15.11
   7 -14  -5  107.17   14.94
  -7  14   5   72.94   16.76
  -7  14  -7    0.87   18.92
   7 -14   7   20.84   15.78
 -14  -7  -7   17.50   13.99
  14   7   7   -0.84   18.13
 -14  -8   0   19.64   11.69
   8 -14   0   34.44   13.58
 -14  -8   0   18.28    4.17
 -14  -8   0   35.01    9.44
  14   8   0   21.06   12.81
  14   8   0   25.50    4.23
   8 -14   0   36.53   11.84
 -14  -8   0    2.25   11.40
  -8  14   0   32.94   11.37
  14   8   0   29.63   10.32
  -8  14   0   12.81   13.43
  14   8   2   27.20   11.00
  -8  14  -2   47.09   10.95
  14   8   2   40.02   11.70
   8 -14   2   30.85   14.49
 -14  -8  -2   36.98   12.72
 -14  -8  -2   36.45   11.15
   8 -14  -2   38.64   12.59
  14   8  -2   35.31   10.08
   8 -14  -2   42.91   14.80
  -8  14   2   36.09   14.04
 -14  -8  -2   15.73   13.07
  14   8   2   36.81   13.65
   8 -14   2   13.60   11.64
 -14  -8   2   49.82    8.13
 -14  -8   2   60.85   12.23
  -8  14   2   58.80   12.23
  -8  14   2   54.99   13.59
 -14  -8   2   22.68    8.78
  -8  14  -2   19.78   16.18
   8 -14  -2   19.62   13.41
  -8  14  -4   -1.57   18.92
 -14  -8   4   -4.98    4.60
   8 -14   4   13.87   18.24
 -14  -8  -4    6.88   15.99
  14   8  -4   -1.94    7.18
 -14  -8   4    2.73   10.22
   8 -14   4    1.44   15.33
  14   8   4   -3.73   13.28
 -14  -8  -4    9.21   14.18
  14   8   4    0.64   14.85
   8 -14  -4    4.32   15.52
  -8  14  -4   -3.46    7.00
  -8  14   4   10.96   16.03
 -14  -8   4   -1.79    7.46
  -8  14   4    4.06   14.60
 -14  -8  -4   11.47   13.15
 -14  -8   4    5.54   11.02
  -8  14   4   15.01   12.55
  14   8   4   -1.41   15.03
  -8  14  -4    4.01    5.90
   8 -14   4   20.89   13.06
   8 -14  -4   12.10   13.06
  -8  14  -6   -7.87   20.03
   8 -14   6   35.33   14.82
   8 -14  -6   22.57   19.07
 -14  -8  -6    9.44   14.06
   8 -14   6   21.30   19.01
 -14  -8  -6   11.99   18.13
  14   8   6   48.65   17.76
  -8  14   6   40.98   19.68
 -14  -8   6   11.75   14.03
 -14  -8  -6   36.32   18.58
  14   8   6   48.74   19.47
  -8  14   6   31.12   16.82
  14   8   6   11.34   16.36
  -8  14  -6   58.28   19.91
   8 -14  -6   49.31   13.43
   9 -14  -1   -9.49   14.76
  14   9   1    0.39   10.61
   9 -14   1   28.91   16.12
 -14  -9  -1   -3.51    8.28
  14   9  -1  -13.07   12.57
  14   9   1   21.43    8.05
 -14  -9   1    7.98    8.55
  14   9   1   26.07   13.06
   9 -14   1   -1.80   12.49
 -14  -9  -1   15.16   11.97
  14   9  -1   -0.89    9.73
  -9  14   1   -7.11   12.20
 -14  -9   1  -22.83   10.69
  -9  14   1   -5.83   12.06
   9 -14  -1   25.57   12.66
  -9  14  -1  -16.84   14.77
  -9  14  -1   22.16   11.42
 -14  -9   1    5.89   12.00
  -9  14   3   59.79   15.87
   9 -14   3   78.02   18.32
   9 -14  -3   53.53   14.22
   9 -14   3   36.50   15.68
  -9  14  -3   51.25   11.82
 -14  -9  -3   61.06   13.38
  14   9  -3   45.28    9.78
  -9  14   3   63.87   13.49
  14   9   3   46.58   13.81
   9 -14  -3   71.30   15.99
 -14  -9  -3   65.68   14.01
  14   9   3   87.11   13.61
  14   9   3   71.60   14.99
   9 -14   3   78.39   13.51
 -14  -9   3   42.69    8.89
 -14  -9   3   81.49    8.48
   9 -14  -3   57.74   14.87
  -9  14  -3   85.43   17.64
  -9  14  -5  -23.29   19.24
  -9  14   5   10.56   12.81
  -9  14  -5   -5.70   17.72
  14   9  -5   20.00   10.35
   9 -14   5    5.71   18.00
  14   9   5   21.73   15.79
 -14  -9  -5   16.25   17.40
  -9  14   5    8.47   17.36
  14   9   5   27.97   17.37
 -14  -9   5    3.70   10.66
  -9  14   5   -2.99   15.78
   9 -14   5  -19.51   21.03
 -14  -9  -5   39.97   17.46
 -14  -9   5    7.57   11.55
 -14  -9   5   29.87   12.53
   9 -14  -5   41.61   17.83
   9 -14  -5   -6.33   12.96
 -14  -9  -5   15.68   14.04
   9 -14   5   -4.64   14.50
   9 -14   7   -2.90   16.14
 -14  -9  -7  -30.12   15.79
  14   9   7  -26.81   18.68
  10 -14   0   36.40   16.33
 -14 -10   0   19.82   11.76
 -14 -10   0   10.33    3.98
 -14 -10   0    5.82   11.76
  14  10   0  -25.38   13.68
 -10  14   0   -0.49   12.74
  14  10   0    5.52    9.00
 -10  14   0   31.02   14.78
  10 -14   0   19.30   12.93
  10 -14  -2   11.05   14.30
 -14 -10   2   13.64    7.62
 -10  14  -2   -4.16   11.52
 -10  14   2   18.88   12.93
 -14 -10  -2   13.00   10.60
 -14 -10  -2    9.83   11.75
  10 -14  -2   32.05   12.99
  14  10   2   12.34   11.15
  10 -14  -2   17.09   14.44
  14  10   2   15.95   11.54
 -10  14   2   14.23   13.80
 -14 -10  -2   23.67   13.41
  14  10  -2   10.77    8.69
  10 -14   2    3.43   13.00
 -14 -10   2    7.75    9.46
 -10  14   2   10.51   12.55
 -14 -10   2   12.10   11.47
 -14 -10   4    1.99    7.03
 -10  14  -4   15.83   18.40
 -10  14   4    6.42   14.17
  10 -14   4   26.87   20.61
  10 -14   4    0.76   16.54
  14  10   4  -18.26   13.90
 -14 -10  -4   11.19   14.44
  14  10  -4   -1.89    6.31
  14  10   4    1.31   15.44
  10 -14  -4   -1.48   16.10
 -14 -10   4   -0.20    6.08
 -10  14  -4   -3.35    8.72
 -10  14   4   19.69   16.81
 -14 -10  -4   19.05   16.48
 -10  14   4   -5.63   12.75
 -14 -10   4   -9.80    9.21
 -14 -10  -4   23.65   14.03
  10 -14   4    5.02   13.84
  10 -14  -4  -38.05   14.52
  10 -14   6   31.03   16.17
 -10  14  -6   34.65   20.48
 -10  14   6   29.22   16.84
 -14 -10  -6    7.95   15.08
 -14 -10  -6   -5.21   18.75
  10 -14  -6   14.70   19.70
  14  10   6   23.00   19.73
 -14 -10  -6   40.18   19.18
  11 -14  -1   -0.64   15.25
  14  11   1   -5.77   10.50
 -14 -11   1   10.17   11.94
  11 -14   1   -6.70   15.30
  11 -14   1    3.05   14.51
 -14 -11  -1    0.53    8.74
  11 -14  -1    5.06   13.16
  14  11  -1   -6.80   13.14
  14  11   1    8.34    8.34
  11 -14   1   -8.23   12.85
  14  11   1   13.72   13.24
 -14 -11  -1   -6.36   13.09
  14  11  -1   -9.79    8.48
 -11  14   1    3.36   13.16
 -14 -11   1   17.79   11.26
 -11  14   1   -6.77   13.13
 -14 -11  -1   24.80   12.65
 -11  14  -1    0.67   15.48
 -11  14  -1   -2.49   12.50
  11 -14  -3  156.67   16.84
 -11  14  -3  136.52   19.78
  14  11   3  128.04   15.32
 -11  14  -3  112.22   14.61
 -14 -11  -3   93.35   14.84
  11 -14  -3  111.32   16.68
  14  11   3  125.37   16.12
  11 -14  -3  115.45   17.62
 -11  14   3  134.66   18.11
 -14 -11  -3  125.58   15.65
  11 -14   3   89.78   20.21
 -11  14   3  133.60   15.40
  11 -14   3  113.53   15.93
 -14 -11   3  113.89   11.16
  14  11  -3   94.99   10.24
 -14 -11   3  118.15    9.82
 -14 -11   3  140.57   12.94
 -11  14  -5   80.23   21.80
 -14 -11  -5  126.17   16.57
 -11  14   5   94.03   20.66
  11 -14  -5   92.44   19.65
  11 -14   5   72.65   23.72
  11 -14   5   92.58   20.47
  14  11   5  126.12   18.01
 -14 -11  -5   83.85   18.38
  14  11   5  112.48   19.26
 -11  14   5   84.00   17.70
 -11  14  -5  114.64   21.38
 -14 -11  -5   77.87   18.43
 -11  14   5   97.66   14.72
 -14 -11   5   98.59   12.03
  14  11   5  105.11   18.21
 -14 -11   5   91.86   12.83
  11 -14   5   76.27   16.31
  11 -14  -5   75.17   15.36
  11 -14   7  -10.89   17.11
  12 -14   0   -4.30   15.79
 -14 -12   0    7.07   12.20
  14  12   0  -12.07   13.51
 -14 -12   0   12.58    5.23
 -12  14   0   22.37   13.59
  14  12   0   13.81    8.92
 -14 -12   0   33.57   12.52
 -12  14   0   18.56   14.88
  12 -14   0    4.43   13.36
  12 -14  -2   99.86   17.15
 -12  14  -2   89.35   13.73
 -14 -12   2   71.62   12.75
  12 -14   2   68.67   18.25
  12 -14   2   72.05   16.41
  14  12  -2   68.80   14.18
  12 -14  -2   79.16   14.66
  14  12  -2   72.79    8.92
  14  12   2   87.59   12.34
 -14 -12  -2   51.85   12.01
  12 -14  -2   66.25   16.70
 -12  14   2   77.82   15.89
 -14 -12  -2   54.54   15.95
 -14 -12   2   84.43    8.02
  14  12   2   71.96   12.88
  12 -14   2   69.24   14.88
 -14 -12   2   81.96   12.16
 -12  14   2   57.64   14.05
  12 -14  -4   22.66   14.55
 -14 -12   4   40.10   10.79
 -12  14  -4    4.45   18.36
 -12  14   4   12.84   15.24
  14  12   4  -26.94   15.09
  12 -14  -4   36.53   15.85
 -14 -12  -4   10.80   14.50
  12 -14  -4   43.85   17.45
 -14 -12   4   23.27    5.21
  14  12   4   14.69   15.41
 -12  14  -4   15.07   10.37
  12 -14   4   -6.91   20.47
 -12  14   4   26.31   18.35
 -12  14   4   20.05   12.84
 -14 -12  -4   22.45   16.60
 -14 -12   4   25.87    8.62
  12 -14   4   24.30   15.29
 -14 -12  -4   10.84   13.63
  14  12   4   13.97   15.62
 -14 -12   4    6.06    9.28
 -12  14  -6    1.99   21.37
 -14 -12  -6   13.16   18.78
  14  12   6   19.76   19.99
 -14 -12  -6    0.78   15.77
  14  12   6   26.28   17.83
  12 -14   6   16.08   16.89
  13 -14   1   13.65   15.59
  14  13   1   22.56   10.60
  13 -14  -1   57.80   16.95
  13 -14   1    8.82   17.36
 -14 -13  -1   19.56    9.10
 -14 -13  -1   17.03   12.86
 -14 -13   1   24.13   12.14
  14  13   1    3.30   14.06
  13 -14  -1    2.48   14.30
  14  13  -1    2.95   12.88
 -14 -13  -1   30.96   13.81
  13 -14   1   16.22   14.33
  14  13  -1   16.01    7.90
 -14 -13   1   21.45   11.91
 -13  14   1   31.95   14.13
 -13  14   1    7.26   13.80
 -13  14  -1    6.42   15.75
 -13  14  -1   11.71   13.55
 -13  14  -3  172.41   22.09
  13 -14   3  148.32   20.63
  13 -14  -3  134.38   18.49
 -14 -13   3  154.00   14.17
  14  13  -3  179.53   14.73
 -14 -13   3  147.10    9.66
 -14 -13  -3  134.50   16.46
  13 -14  -3  161.90   19.38
  13 -14  -3  184.23   19.47
  14  13   3  144.49   16.29
 -13  14   3  160.35   19.72
  14  13   3  154.09   16.37
 -14 -13  -3  163.77   17.30
 -13  14   3  138.30   16.43
  13 -14   3  149.52   18.04
  14  13   3  146.04   18.03
 -14 -13   3  182.22   14.34
 -13  14  -3  140.00   16.85
  13 -14  -5   91.81   15.56
 -13  14  -5  118.41   22.58
 -14 -13   5   70.54   12.54
 -13  14   5   92.04   19.25
 -14 -13  -5   66.54   16.77
 -14 -13  -5   74.59   18.35
  13 -14  -5   88.55   20.15
  14  13   5   66.77   19.45
 -13  14   5   93.45   14.32
 -14 -13  -5   75.85   19.91
  14  13   5   43.90   17.98
  13 -14   5   84.64   17.76
  14 -14   0   -3.10   16.56
 -14 -14   0    2.63    6.30
 -14 -14   0  -13.60   12.31
  14 -14   0   28.33   14.28
  14  14   0    2.55   13.36
 -14 -14   0   18.39   13.07
 -14  14   0   13.96   13.87
  14  14   0    0.29    8.93
 -14  14   0    4.76   15.07
 -14  14  -2   40.90   17.50
  14 -14  -2   10.14   16.78
 -14  14  -2   23.60   13.37
 -14  14   2   -4.16   15.88
  14 -14   2   26.05   19.13
  14  14   2   12.57   11.60
 -14 -14   2    5.06   11.34
 -14 -14  -2   19.34   11.36
  14  14  -2    7.92    5.26
  14  14  -2   10.51   12.99
  14 -14  -2   -7.50   15.34
  14  14   2   16.91   11.71
  14  14  -2   21.92   12.03
 -14 -14  -2   37.06   15.78
  14 -14  -2    2.08   15.75
  14 -14   2   25.02   15.21
 -14 -14   2    7.88   11.83
  14 -14   2   26.70   16.18
 -14  14   2   35.24   14.47
 -14 -14  -4   64.91   15.42
 -14  14  -4   42.49   20.48
  14 -14  -4   77.81   15.98
  14  14   4   45.96   15.00
  14 -14   4    4.25   19.01
  14  14   4   35.23   16.49
 -14 -14  -4   33.26   15.77
  14 -14  -4   35.59   17.23
 -14  14   4   50.48   17.64
 -14  14  -4   41.76   11.42
 -14  14   4   31.16   18.08
  14  14  -4   31.83   10.71
 -14 -14  -4   33.72   17.43
 -14  14   4   19.28   13.19
  14 -14  -4   55.71   18.08
  14 -14   4   43.31   17.22
 -14 -14   4   15.77    9.51
  14  14   4   17.96   16.30
  14 -14   4    7.36   21.07
 -14 -14   4   52.83   12.75
  14 -14   6    8.73   17.68
 -15  14  -1    3.73   13.55
  14  15   1   -1.90   10.21
  15 -14  -1   -1.49   16.70
  15 -14   1   11.05   15.54
 -14 -15   1   -1.61    3.19
 -14 -15  -1   11.66    9.85
 -14 -15   1  -21.23   12.56
  15 -14  -1  -13.55   14.87
  14  15  -1   12.39   13.74
 -14 -15  -1   -3.09   13.42
  14  15  -1   12.07   13.46
  15 -14   1   -6.02   17.01
  15 -14   1   25.18   15.22
  14  15  -1   -7.65    7.19
 -14 -15  -1    5.39   14.47
 -14 -15   1   -2.28    3.07
  14  15   1   -5.60   14.73
 -14 -15   1  -21.80   13.71
 -15  14   1   33.44   15.32
 -15  14   1  -23.31   15.13
 -15  14  -1    9.17   17.13
  15 -14  -3  114.06   18.07
  15 -14  -3  126.95   17.97
  14  15   3  114.95   15.35
 -14 -15   3  125.31   13.38
 -14 -15  -3   94.09   15.80
 -15  14  -3   83.54   14.67
  14  15   3   88.93   15.47
  15 -14  -3  126.31   18.93
  14  15  -3   99.71   14.04
 -15  14  -3   93.22   16.58
 -15  14   3  103.47   19.19
 -14 -15  -3   93.76   18.82
  15 -14   3  110.28   18.21
 -15  14   3  100.90   15.36
 -14 -15   3  120.64   14.58
 -14 -15  -3  110.41   16.66
  15 -14   3  114.96   19.72
  15 -14  -5    9.53   19.01
 -15  14   5    7.02   17.50
  15 -14   5    6.14   17.16
 -14 -15  -5   -8.00   16.35
  14  15   5   32.32   18.56
 -14 -15  -5   24.23   17.74
  14  15   5   33.72   18.54
  15 -13   0   15.40   16.97
 -13 -15   0   14.54    8.37
 -13 -15   0   22.14   11.93
  15 -13   0  -18.34   14.61
  13  15   0   21.06   13.76
  13  15   0    4.39   13.30
 -13 -15   0   12.10   13.37
 -15  13   0   22.30   14.52
  13  15   0    2.59    8.13
 -15  13   0  -22.44   16.32
 -15  13  -2   53.44   18.53
  15 -13   2  -18.56   15.78
  13  15   2   33.14   14.55
  15 -13  -2   37.40   16.31
 -15  13  -2   14.10   14.43
  15 -13   2   24.37   19.22
  13  15   2   23.42   11.54
  15 -13  -2   18.78   15.42
 -13 -15   2   15.13    3.37
 -13 -15  -2   25.59   12.52
 -13 -15   2   17.82   11.05
 -13 -15   2   17.14    3.81
  13  15  -2   12.40   13.74
  13  15   2   40.16   12.76
  15 -13  -2   20.80   15.50
  13  15  -2   10.65   11.85
 -13 -15  -2    9.30   14.37
 -15  13   2    9.84   16.16
  15 -13   2   26.47   15.33
 -13 -15  -2   24.13   12.59
 -13 -15   2   26.77   12.68
 -15  13   2   24.42   14.00
 -15  13  -4   24.11   21.17
  15 -13  -4    4.96   14.29
 -13 -15  -4  -29.77   15.03
  15 -13   4  -22.77   18.69
 -13 -15  -4   12.57   15.34
 -13 -15   4  -19.69    9.18
  15 -13  -4  -18.06   17.15
 -15  13  -4   15.34   11.98
  13  15   4    1.37   15.95
 -13 -15   4    7.66    6.53
  13  15  -4   -4.55   10.97
 -13 -15  -4  -22.16   17.08
 -15  13   4   15.05   12.62
  15 -13   4  -13.55   17.00
 -13 -15   4    7.52   13.10
  13  15   4   -1.56   15.85
  15 -13   6   12.36   17.58
 -15  12  -1    8.34   13.46
 -15  12  -1    9.34   15.71
  15 -12   1   18.54   14.15
  15 -12  -1    2.70   15.75
 -12 -15  -1    0.35    9.83
  12  15   1    0.34    9.39
  15 -12   1   24.93   17.37
 -12 -15   1   -3.60    4.95
 -12 -15   1   -2.94   11.13
  15 -12  -1   -0.64   14.45
  12  15  -1    1.64   13.00
  12  15  -1    2.86    4.75
  12  15  -1   15.08   12.60
 -12 -15  -1    5.12   11.66
 -12 -15  -1    6.43   13.64
 -15  12   1   -1.91   14.70
 -12 -15   1   18.62   12.96
  15 -12   1   25.22   15.27
  12  15   1    5.44   13.33
 -15  12   1   -0.59   14.51
 -12 -15   1    7.48    6.14
 -12 -15  -3  -11.84   13.17
  15 -12  -3   -6.70   14.30
 -12 -15   3   -6.93    5.59
  12  15  -3  -16.23   12.67
 -12 -15  -3    6.64   13.95
 -12 -15   3   17.06    9.49
 -15  12  -3  -11.55   12.98
  15 -12   3   21.07   17.05
 -15  12  -3  -11.33   14.24
  15 -12  -3   -5.29   15.28
  12  15   3   10.09   13.92
  12  15  -3    6.44   11.44
 -15  12   3   13.50   16.36
 -15  12   3    3.37   12.42
  15 -12   3  -14.56   15.99
 -12 -15   3    2.45   12.57
 -15  12   5    0.83   16.82
  12  15   5   -2.47   17.19
 -15  12  -5   29.86   22.64
  15 -12   5  -44.93   19.77
  15 -12  -5    4.27   17.28
 -12 -15  -5  -15.50   17.74
  15 -12  -5   13.05   18.18
  12  15   5  -15.74   18.68
 -15  12   5    7.29   19.40
 -12 -15  -5   10.67   17.04
 -12 -15  -5  -10.76   15.87
  15 -12   5   26.48   16.79
 -15  12  -5   15.19   19.28
  11  15   0   -3.96    7.33
 -11 -15   0    1.01   11.17
 -11 -15   0    6.32    8.78
  15 -11   0    1.42   16.17
  15 -11   0    3.01   13.83
  11  15   0  -13.53   13.38
 -11 -15   0   23.04   13.26
  11  15   0   -5.36   11.86
 -15  11   0    2.36   13.21
 -15  11   0   -6.94   14.98
  11  15   2    6.95   14.02
 -15  11  -2   15.52   16.72
 -15  11  -2    3.55   12.68
  15 -11  -2   19.24   14.51
  15 -11  -2   26.10   15.01
  15 -11   2   27.29   17.72
 -11 -15  -2   13.66   11.92
 -11 -15   2    8.08   10.55
  11  15   2   17.24   12.46
  11  15  -2   16.75   12.60
  15 -11   2   11.87   14.23
 -11 -15   2    2.09    5.36
 -11 -15  -2   14.95   14.52
 -15  11   2   13.32   14.61
  15 -11   2   11.77   14.36
  11  15  -2   18.38   11.85
 -11 -15   2    8.01   12.84
 -15  11   2   -2.48   12.68
 -11 -15  -2    7.70   12.55
 -11 -15   4   19.58   14.06
 -15  11  -4    1.88   19.94
  11  15   4    2.23   15.55
  15 -11  -4    9.62   13.12
  15 -11  -4   20.23   16.16
  15 -11   4   -1.60   18.03
 -11 -15  -4  -13.18   14.35
  15 -11  -4   13.79   16.21
 -11 -15  -4   22.54   15.25
 -11 -15   4   18.76    8.30
  11  15   4    8.29   16.07
 -15  11  -4   23.30   12.49
 -11 -15   4   22.02    9.09
  11  15  -4   33.83   11.27
 -11 -15  -4    8.79   16.25
 -15  11   4   22.38   11.25
  15 -11   4   15.34   16.17
  15 -11   6    2.46   17.31
  15 -11  -6  -15.99   19.05
  11  15   6   13.51   20.33
 -15  11   6   -5.94   17.82
 -11 -15  -6   18.76   16.18
  15 -10   1   30.17   17.13
 -15  10  -1   22.18   12.87
  10  15   1   25.77   12.59
 -15  10  -1   21.98   16.02
  15 -10  -1    0.61   14.61
  15 -10   1   -4.59   13.82
  10  15   1    7.04    8.25
 -10 -15   1   17.31    8.11
  15 -10  -1    4.24   14.27
  10  15   1   10.69   13.63
 -10 -15   1   11.93   10.46
  10  15  -1   24.40   12.72
  15 -10   1   11.81   13.92
 -10 -15  -1   10.40   13.23
  10  15  -1   10.58   11.67
 -15  10   1   21.03   13.95
 -10 -15   1  -10.03   12.54
 -10 -15  -1   22.69   11.76
 -10 -15  -1   25.25   10.67
 -15  10   1    6.47   13.38
 -15  10  -3   12.81   12.70
  15 -10  -3   -0.96   12.80
 -15  10  -3   25.91   13.54
  15 -10   3   23.88   14.86
 -10 -15   3   23.12    7.28
 -10 -15  -3   17.96   14.09
  10  15  -3    1.28   11.24
  15 -10  -3    7.81   14.43
  10  15   3   27.35   13.82
 -10 -15  -3   43.20   13.32
 -10 -15   3   13.92    8.15
  15 -10  -3   -4.13   14.51
  10  15  -3   10.52   11.51
 -10 -15  -3   19.31   13.98
 -15  10   3   -9.05   11.68
  15 -10   3   17.35   14.78
 -10 -15   3    6.94   12.93
 -10 -15   5   37.46   12.37
 -15  10  -5   66.68   21.58
 -10 -15   5   28.96   14.71
  10  15   5   56.54   17.76
  15 -10  -5   55.48   17.23
 -10 -15  -5   13.83   16.85
 -15  10  -5   45.82   19.35
  15 -10  -5   34.54   17.60
  10  15   5   28.10   18.33
 -15  10   5   59.17   20.29
 -10 -15  -5   12.56   15.33
 -10 -15  -5    6.67   16.99
  10  15  -5   33.45   12.02
  15 -10   5   50.00   18.70
  15 -10   5   32.93   17.52
 -15  10  -5   32.13   11.30
   9  15   0    5.40   11.91
 -15   9   0  -16.64   14.76
  15  -9   0   -7.23   15.60
   9  15   0   -1.31    6.59
  -9 -15   0  -10.05    9.33
  15  -9   0   -3.44   13.32
   9  15   0  -19.19   12.77
  -9 -15   0    5.55   12.78
  -9 -15   0    2.78   10.48
  15  -9   0   14.15   12.39
 -15   9   0   -9.50   12.35
  15  -9   2   49.29   16.57
 -15   9  -2   32.94   16.88
  -9 -15  -2   49.18   11.99
 -15   9  -2   40.06   13.54
  15  -9  -2   33.11   13.66
   9  15   2   41.38   13.52
  -9 -15   2   50.83   12.83
  -9 -15   2   54.46    8.58
 -15   9  -2   36.08   12.96
  -9 -15  -2   39.96   12.61
  15  -9   2   64.08   15.03
  15  -9  -2   40.00   14.16
   9  15   2   14.40   12.87
   9  15   2   45.47   14.07
   9  15  -2   33.99   11.30
  -9 -15   2   40.91    9.87
   9  15  -2   38.77   12.04
  15  -9   2   19.64   14.29
 -15   9   2   28.04   12.29
  -9 -15   4   -5.65   13.94
 -15   9  -4  -37.83   20.41
  15  -9  -4   -7.73   10.99
 -15   9  -4   34.70   17.87
   9  15   4  -14.89   15.14
  15  -9   4   -1.52   17.19
  -9 -15  -4    3.34   13.56
  -9 -15   4    8.97   10.35
  15  -9  -4    6.56   15.56
  -9 -15  -4   18.62   15.77
  15  -9  -4   14.96   15.53
   9  15   4   17.33   15.59
  -9 -15  -4   15.03   15.22
  -9 -15   4    1.11    7.14
 -15   9  -4  -14.36   11.91
   9  15  -4    5.41   11.41
 -15   9   4    5.55    9.77
 -15   9   4   14.55   16.82
  15  -9   4    0.68   15.54
  15  -9   6   15.65   17.32
 -15   9  -6  -13.78   22.32
   9  15   6   -5.03   17.23
  -9 -15  -6    0.88   18.55
  15  -9  -6    9.25   18.95
   9  15   6   -2.88   20.95
  -9 -15  -6   -1.74   17.32
 -15   9   6    5.59   16.57
  -9 -15  -6   14.27   16.04
 -15   8   1   10.95   12.70
 -15   8  -1   10.85   11.66
 -15   8  -1   -9.19   15.57
  -8 -15  -1    6.43   11.31
  15  -8   1    3.65   13.18
  15  -8   1   -6.37   16.45
   8  15  -1   -0.51   11.68
  -8 -15  -1    4.29   10.85
  -8 -15   1   -4.56    9.33
   8  15   1    5.38   12.72
   8  15   1   12.50   11.44
  15  -8   1    1.13   13.87
  -8 -15  -1   -7.01   13.58
  -8 -15   1    9.75   12.94
  -8 -15   1    9.19    9.82
   8  15  -1    5.95   10.39
  15  -8  -1    6.68   13.61
 -15   8  -3   44.11   15.35
 -15   8  -3   43.46   13.40
  15  -8  -3   28.41   11.91
  -8 -15  -3   22.26   11.99
  -8 -15   3   25.44    9.42
  -8 -15  -3   30.06   14.13
  15  -8  -3   15.84   14.41
   8  15  -3   25.54   10.02
  15  -8  -3   13.07   13.34
 -15   8  -3    8.56   12.11
  15  -8   3   28.43   15.31
 -15   8   3   10.08   15.14
  -8 -15  -3   -3.40   13.66
   8  15  -3   19.07   12.28
  -8 -15   3   28.87    7.51
 -15   8   3   19.57   10.10
   8  15   3    6.36   14.13
  15  -8   3   19.97   14.17
  -8 -15   3    6.61   13.54
  15  -8   5   31.28   16.98
 -15   8  -5    9.65   11.16
  -8 -15   5    8.79   14.75
 -15   8  -5   37.81   20.45
 -15   8  -5   -4.18   18.27
   8  15   5   -0.76   16.48
  15  -8   5    0.84   17.52
  15  -8  -5   23.33   16.08
  -8 -15   5   -6.10   12.75
  -8 -15  -5   24.56   17.23
  15  -8  -5  -15.84   16.06
   8  15   5    3.30   18.90
 -15   8   5  -19.11   18.28
  -8 -15  -5   -5.50   16.05
   8  15  -5   21.03   12.09
  -8 -15  -5    2.15   14.17
 -15   8   7   17.11   17.70
  15  -8  -7   10.81   20.01
 -15   7   0  -27.17   14.36
  -7 -15   0   -6.46   10.54
   7  15   0  -11.76   11.14
  15  -7   0    0.90   12.28
  15  -7   0    8.51   15.02
   7  15   0   -4.71    6.14
  -7 -15   0    4.01   10.08
   7  15   0   12.86   12.63
  -7 -15   0   -3.77   12.56
 -15   7  -2   76.61   17.79
 -15   7  -2   19.36   12.27
  -7 -15   2   22.02    9.52
  15  -7   2    7.39   13.55
   7  15   2   41.41   12.63
  -7 -15  -2   28.97   12.56
 -15   7  -2   19.66   12.73
  -7 -15  -2   17.77   12.40
  15  -7  -2   45.08   14.45
  15  -7  -2   11.71   12.20
  15  -7  -2   16.52   11.91
 -15   7   2   35.48   14.54
   7  15  -2   25.62   12.12
  15  -7   2   29.34   13.51
   7  15  -2   16.08   10.10
  -7 -15   2   36.19   12.36
 -15   7   2   33.45   11.38
  -7 -15   2   18.35    8.82
  15  -7   4   -1.34   15.12
  -7 -15   4   -9.81   14.65
  15  -7  -4   19.82    8.47
 -15   7  -4   40.13   19.60
  -7 -15   4    3.03    5.65
  15  -7   4    3.62   16.31
  -7 -15   4   13.44   11.46
   7  15   4   -6.77   14.75
 -15   7  -4  -20.96   16.78
  15  -7  -4    8.31   14.92
  15  -7  -4   26.61   14.60
  -7 -15  -4    8.66   15.02
   7  15   4    2.79   15.68
 -15   7   4    4.36   16.53
 -15   7   4    5.07    7.41
  -7 -15  -4   34.30   15.94
   7  15  -4    5.30   12.46
  -7 -15  -4    2.58   13.70
  15  -7   6   -1.65   17.41
 -15   7  -6  -24.17   22.07
   7  15  -6    9.22   14.66
 -15   7   6  -35.99   16.44
   7  15   6  -12.20   16.54
  -7 -15   6    9.44   14.03
   7  15   6   -4.76   20.85
  15  -7  -6   -3.91   17.90
 -15   7   6  -36.23   20.03
  -7 -15  -6   -8.54   16.02
  -7 -15  -6  -17.32   16.97
  15  -7   6  -12.21   19.31
  -7 -15  -6   17.46   18.44
 -15   6   1   13.34   13.00
 -15   6  -1   15.55   11.22
   6  15  -1   14.65    9.98
 -15   6  -1    8.22   15.58
  -6 -15   1    7.72    9.54
  15  -6  -1    1.50   12.68
   6  15   1   10.23   11.12
  -6 -15  -1    9.39   11.08
 -15   6  -1   10.37   12.85
  -6 -15  -1   13.75   11.18
  15  -6   1   13.34   12.24
  15  -6  -1   13.63   13.46
   6  15   1   -4.56   13.71
   6  15  -1   16.64   12.29
  -6 -15  -1    8.49   12.71
 -15   6   1   -8.48   13.04
  -6 -15   1   15.67   12.00
  15  -6  -3   35.60   13.52
  15  -6  -3   16.74    9.69
  -6 -15   3   21.30    7.25
  15  -6   3   24.93   15.06
 -15   6  -3   -0.59   12.90
  -6 -15  -3    8.05   13.30
  15  -6  -3   10.85   12.65
   6  15  -3   30.25    9.12
   6  15   3   31.77   14.35
   6  15   3   38.90   14.50
 -15   6  -3   19.61   11.88
 -15   6   3   44.24   14.72
  -6 -15  -3   15.65   12.07
  -6 -15  -3   18.91   14.08
   6  15  -3   33.05   12.86
  -6 -15   3   17.61   10.54
 -15   6   3   36.37    8.95
  15  -6   3   18.84   14.06
  -6 -15   3   28.40   13.93
 -15   6  -3   44.36   14.58
  -6 -15  -5    8.43   17.39
  15  -6   5   17.79   16.31
  -6 -15   5    3.58   15.21
 -15   6  -5  -14.75   20.25
 -15   6  -5    7.78   11.55
  -6 -15   5   18.12    7.15
 -15   6  -5   19.62   18.87
  15  -6  -5   -5.91   15.63
  15  -6   5   40.74   18.20
   6  15   5  -20.52   15.15
  -6 -15  -5    0.70   14.46
  15  -6  -5   37.97   16.81
  -6 -15   5    2.96    7.63
   6  15   5  -18.88   18.38
 -15   6   5  -31.73   18.80
  -6 -15   5  -11.30   12.91
  -6 -15  -5   -8.24   16.12
   6  15  -5    9.85   12.61
  15  -6  -7    9.16   17.97
  -6 -15   7  -23.66   16.64
  -6 -15  -7  -12.94   17.15
 -15   6   7   -8.42   16.09
  15  -5   0   -4.38   11.20
 -15   5   0   19.40   14.62
  -5 -15   0  -12.62   12.59
   5  15   0   21.43   10.85
  -5 -15   0  -19.60    9.94
   5  15   0    1.56    6.48
  -5 -15   0   -5.87   10.51
  15  -5   0   -0.52   13.30
   5  15   0   15.10   12.11
  -5 -15   2    3.56   10.43
 -15   5  -2    9.27   15.92
  15  -5   2  -12.10   12.84
  -5 -15   2   -0.91    8.23
  -5 -15  -2    8.35   12.50
  15  -5  -2    3.97   13.38
 -15   5  -2    2.63   12.11
  15  -5  -2   -0.41   11.10
 -15   5  -2   21.33   12.37
   5  15   2    7.97   12.45
  -5 -15  -2   -7.73   11.26
 -15   5   2   17.68   13.97
   5  15  -2   -2.48   12.48
  -5 -15  -2   -2.97   13.37
  -5 -15   2   -5.17   12.93
   5  15  -2   -3.49    9.08
 -15   5   2   -4.46   10.42
  15  -5   4  -31.85   14.43
  -5 -15   4   -5.24   14.50
 -15   5  -4    8.08   19.45
 -15   5  -4  -17.40   15.93
  -5 -15  -4   -5.70   13.11
  15  -5   4   29.34   15.31
  -5 -15   4    3.48    4.71
  15  -5  -4   18.35   14.50
  -5 -15  -4   -4.68   14.99
  15  -5  -4    3.32   13.82
  -5 -15   4    2.73    4.11
   5  15   4   16.44   13.88
   5  15   4   25.20   15.91
 -15   5   4   25.44   16.34
 -15   5   4    3.27    4.83
  -5 -15  -4    7.54   14.56
  -5 -15   4   12.28   12.02
   5  15  -4   17.13   13.09
 -15   5  -4    7.99   11.58
  -5 -15   4    1.64    3.67
  15  -5   6    6.60   17.59
   5  15   6   20.57   16.85
 -15   5  -6   -8.41   21.34
   5  15  -6    9.92   15.31
  -5 -15   6   -5.07   15.79
 -15   5  -6   11.93   20.14
  15  -5   6   26.77   19.23
  -5 -15   6   -3.14   14.81
  -5 -15  -6  -11.48   16.29
  -5 -15  -6  -28.62   18.91
  15  -5  -6   -7.14   16.60
   5  15   6   35.98   19.87
 -15   5   6   42.58   19.82
  -5 -15  -6   -4.71   16.46
 -15   4   1   19.60   12.36
 -15   4  -1   17.14   14.72
   4  15  -1   22.76    9.33
   4  15   1   17.97    9.30
  15  -4   1   10.40   11.38
 -15   4  -1   22.69   13.46
  -4 -15  -1   36.56   12.53
   4  15   1   20.33   10.86
  -4 -15   1   12.72    9.24
  15  -4  -1   17.55   13.25
   4  15   1    4.91   12.76
  -4 -15  -1   27.13   11.22
   4  15  -1   12.09   11.61
 -15   4   1   12.46   11.94
  -4 -15   1   37.20   12.60
  15  -4   3   20.77   13.71
  -4 -15   3   -2.20   14.09
  -4 -15   3   10.31    6.77
   4  15   3   13.40   13.28
  -4 -15  -3   26.06   12.12
  15  -4   3    2.35   14.10
  15  -4  -3   20.61   13.84
  15  -4  -3   22.14   11.90
   4  15   3   14.94   14.09
 -15   4  -3    0.58   13.77
   4  15  -3   16.49    7.78
 -15   4   3   37.35   14.26
 -15   4  -3   19.40   12.13
  -4 -15  -3   11.89   13.57
  -4 -15   3   16.63   11.25
  -4 -15  -3    9.88   13.66
 -15   4   3   -5.87    7.50
   4  15   3    7.87   12.92
   4  15  -3   12.68   12.26
  -4 -15  -5   38.85   15.03
  15  -4   5   16.28   15.96
  -4 -15   5    2.43    8.28
  -4 -15   5   21.17   16.49
 -15   4  -5   12.93   11.99
   4  15   5   32.14   15.85
   4  15   5   13.02   16.76
  15  -4  -5   20.24   15.31
  -4 -15   5   15.62   12.91
  15  -4   5   14.33   17.29
  -4 -15   5   22.99    8.38
  -4 -15  -5   40.64   17.47
  15  -4  -5    1.20   14.99
   4  15   5    2.47   18.89
 -15   4   5   16.61   17.21
   4  15  -5   -2.21   14.26
 -15   4  -5   -9.57   18.16
  -4 -15  -5   12.24   15.40
   4  15  -5   18.14   12.59
 -15   4  -5   50.94   21.26
   4  15  -7   43.22   18.10
  15  -4  -7   14.40   17.05
  -4 -15   7   10.59   16.87
  -4 -15  -7   16.56   16.36
 -15   4   7    7.40   18.81
 -15   4   7    5.73   15.61
 -15   3   0   -4.13   13.70
  15  -3   0    0.70   10.10
 -15   3   0  -14.94   13.01
   3  15   0    4.24    7.25
   3  15   0    2.78   10.04
  15  -3   0   -2.99   12.56
   3  15   0   -7.24   12.59
  -3 -15   0  -13.49   12.96
  -3 -15   0   12.13   10.10
 -15   3   0    2.83   11.64
 -15   3   2   23.99   10.53
   3  15  -2   48.87    9.09
  -3 -15   2   58.76    8.63
 -15   3  -2   35.20   12.25
 -15   3  -2   36.27   16.53
  -3 -15  -2   57.39   12.39
   3  15   2   71.32   11.23
  15  -3   2   50.99   12.80
  -3 -15  -2   17.09   12.27
  -3 -15   2   53.51   11.79
  15  -3  -2   52.34   14.10
  15  -3  -2   53.55   10.80
 -15   3  -2   55.72   12.64
   3  15   2   59.56   14.11
   3  15   2   46.04   12.37
 -15   3   2   67.17   13.16
  -3 -15  -2   37.04   13.33
   3  15  -2   43.51   12.50
  -3 -15   2   84.77   14.06
 -15   3  -4    2.92   11.21
  15  -3   4  -16.39   13.73
  -3 -15   4   -3.11   15.29
 -15   3  -4   14.23   15.58
  -3 -15   4    2.02   12.61
   3  15   4   -3.86   14.75
  15  -3   4   16.80   14.88
  15  -3  -4   14.19   14.13
  -3 -15  -4    8.11   15.29
  15  -3  -4   20.12   12.70
   3  15   4  -29.68   15.79
   3  15   4  -13.44   14.10
   3  15   4    6.41   14.06
 -15   3  -4   30.32   18.89
  -3 -15  -4  -18.40   14.02
 -15   3   4   23.97   15.20
   3  15  -4    5.24   12.94
  -3 -15  -4   15.05   13.64
  -3 -15   4   21.05    5.98
  -3 -15  -6   16.76   15.59
  15  -3   6   -3.31   17.02
   3  15  -6   15.97   16.02
  -3 -15   6  -23.61   16.78
   3  15   6    7.12   18.11
  -3 -15   6    6.73   15.87
  15  -3   6  -27.26   19.50
  15  -3  -6  -10.87   15.05
 -15   3  -6   -9.45   22.05
   3  15   6   -5.66   20.02
   3  15   6   13.16   17.13
 -15   3   6    1.66   18.40
 -15   3  -6   15.44   11.38
  -3 -15  -6   -3.47   18.79
  -3 -15  -6  -22.66   16.25
   3  15  -6   -7.67   13.84
 -15   3  -6   -3.61   19.66
  15  -2  -1  116.32   15.20
 -15   2  -1  130.07   14.44
 -15   2   1  122.87   14.35
 -15   2  -1  112.48   16.16
  15  -2   1  112.81   13.12
   2  15  -1  113.22    7.43
  -2 -15   1  122.98   11.49
   2  15   1  111.86   11.45
 -15   2  -1  127.86   14.78
   2  15  -1  117.39   11.38
  -2 -15  -1  120.78   14.48
  -2 -15  -1  107.75   12.68
   2  15  -1  113.60   15.18
   2  15   1   99.49   12.77
  15  -2   1  128.90   14.77
 -15   2   1  119.91   14.50
  -2 -15   1  148.35   15.43
  -2 -15   3   -3.49   14.40
  -2 -15   3    4.26   12.30
 -15   2  -3    1.12   13.86
  15  -2   3   18.88   12.95
   2  15   3    2.65   12.48
  15  -2  -3   -1.66   12.69
  -2 -15  -3   -5.32   13.70
  15  -2  -3    7.76   11.33
   2  15   3   15.21   14.16
 -15   2   3  -17.17   13.85
  -2 -15   3    3.56    4.25
  -2 -15  -3  -15.16   13.47
   2  15   3    1.23   13.28
   2  15  -3    3.65   12.79
 -15   2  -3    2.45   11.54
   2  15  -3    2.82    6.58
 -15   2   3    4.38    5.66
  -2 -15   5   10.65    8.98
  15  -2   5    1.47   16.31
  -2 -15   5   31.16   16.72
   2  15  -5   -5.36   14.58
 -15   2  -5  -16.55   19.64
 -15   2  -5   -2.34   17.35
  15  -2  -5   10.51   14.11
 -15   2  -5   19.06   11.94
   2  15   5   20.64   17.40
  15  -2   5   24.75   14.31
  15  -2   5  -24.85   17.27
  -2 -15  -5   -2.31   16.54
   2  15   5   23.04   18.07
  15  -2  -5   41.40   13.10
 -15   2   5   -8.59   17.28
   2  15   5   58.98   15.63
  -2 -15  -5   30.34   15.36
  -2 -15   5    6.03   13.82
   2  15  -5    9.49   13.35
  -2 -15  -5    6.91   14.66
  15  -2  -7   10.32   16.21
  -2 -15   7   -9.55   17.63
 -15   2   7  -33.68   20.47
 -15   2   7   11.54   18.45
  -2 -15  -7   -1.58   16.42
 -15   2   7  -18.10   15.55
   2  15  -7  -26.88   18.80
 -15   1   0    0.89   11.70
  15  -1   0   -6.95    9.57
 -15   1   0   -4.37   12.24
   1  15   0    2.92    7.92
 -15   1   0    9.99   13.52
  15  -1   0  -27.56   13.04
   1  15   0   -3.57   12.10
  -1 -15   0   -0.39   10.28
  -1 -15   0  -13.05   12.67
   1  15   0   11.37    9.70
   1  15   2   40.99   12.29
  -1 -15  -2   26.59   11.73
 -15   1   2   24.15   10.12
  -1 -15   2   34.56   11.77
 -15   1  -2   33.08   11.88
 -15   1  -2   34.48   16.46
 -15   1  -2   11.10   12.35
  15  -1   2   47.03   12.63
   1  15  -2   28.72    8.08
  -1 -15   2   14.01    4.53
  -1 -15  -2   30.58   13.55
  15  -1  -2   29.09    9.74
  15  -1  -2   41.06   13.26
  -1 -15   2   23.12    8.07
 -15   1  -2    7.93   12.33
   1  15   2   24.97   13.43
 -15   1   2   16.30   11.91
  -1 -15  -2   29.27   12.87
   1  15   2   39.43   11.45
   1  15  -2   11.35   11.72
  15  -1   2    7.31   12.32
  -1 -15   2   21.09   13.85
  15  -1  -4   -5.39   11.29
  -1 -15   4  -23.19   16.02
 -15   1  -4   -6.11   11.64
  -1 -15  -4  -18.78   13.41
 -15   1  -4   -2.64   15.77
  -1 -15   4  -12.16   13.33
   1  15   4    5.83   14.18
  15  -1  -4  -25.40   13.62
  15  -1   4   -9.45   12.99
  -1 -15  -4    1.36   15.30
  15  -1   4    5.19   14.38
   1  15   4  -12.84   16.15
 -15   1   4  -15.78   15.04
   1  15   4   -3.85   13.86
 -15   1  -4    9.72   18.97
  -1 -15  -4   19.08   14.44
   1  15  -4    4.47   13.69
   1  15   4   17.06   12.83
  -1 -15   4   -4.82    7.93
  15  -1   6   44.82   17.56
  -1 -15   6   10.68   11.19
   1  15  -6   36.86   16.93
 -15   1  -6   41.06   21.45
 -15   1  -6  -13.39   20.41
  -1 -15   6    0.72   15.90
   1  15   6   -6.26   18.96
  15  -1   6    8.11   18.77
  15  -1   6   -3.63   14.18
  -1 -15  -6    9.58   17.81
  -1 -15   6   -6.82   17.40
   1  15   6   51.03   21.14
 -15   1   6   13.88   15.83
 -15   1   6   -3.16   18.10
 -15   1  -6    6.71   11.79
  -1 -15  -6    2.17   15.56
   1  15  -6    8.44   14.64
  15  -1  -6   18.68   13.34
   1  15   6   23.65   16.42
  15   0  -1  173.44   13.28
  15   0   1  196.88   14.77
   0  15   1  201.04   15.84
 -15   0  -1  179.56   15.89
   0 -15  -1  182.47   15.90
   0 -15   1  198.27   12.15
 -15   0  -1  219.96   18.86
   0  15  -1  198.46   12.01
 -15   0   1  190.29   17.54
   0  15   1  194.52   14.51
   0 -15  -1  218.51   17.06
 -15   0  -1  183.84   16.66
  15   0  -1  222.45   17.28
 -15   0  -1  166.04   14.83
   0  15  -1  191.84   13.85
   0  15  -1  173.83   16.75
 -15   0   1  167.39   15.96
   0 -15   1  179.73   13.93
   0 -15  -1  198.38   17.13
  15   0   1  218.21   17.24
 -15   0   1  175.28   16.07
   0 -15   1  202.37   18.10
   0 -15   3   68.34   16.27
  15   0   3   22.88   13.51
   0  15  -3   37.95    6.51
 -15   0  -3   52.24   14.14
   0 -15   3   74.19   13.55
  15   0   3   52.68   13.68
  15   0   3   55.56   13.22
   0  15   3   20.96   13.01
  15   0  -3   57.12   12.86
  15   0  -3   49.53   10.05
   0 -15  -3   37.91   14.17
 -15   0   3   31.07    4.51
   0  15   3   35.73   13.22
 -15   0   3   37.13   13.37
   0 -15   3   57.13    7.59
   0 -15  -3   34.61   13.39
   0  15  -3   50.82   13.78
 -15   0   3   17.20    4.91
 -15   0  -3   37.49   12.43
   0 -15   5   12.40   10.39
   0  15   5   21.56   17.68
 -15   0  -5    7.77   20.15
 -15   0  -5   10.78   16.72
   0  15  -5  -10.86   15.28
   0 -15   5   14.83   14.87
  15   0   5   -3.04   16.09
   0  15   5   23.87   16.66
  15   0  -5   24.03   12.24
   0 -15   5   -7.42   17.21
 -15   0  -5   13.24   12.33
   0 -15  -5  -29.65   17.02
  15   0   5  -14.42   14.26
   0 -15  -5   10.63   15.24
 -15   0   5   -7.43   16.15
   0  15  -5  -12.37   14.80
   0  15   5   23.63   14.33
   0 -15   7    9.24   18.04
 -15   0   7  -18.01   17.90
 -15   0   7   -0.87   19.22
   0  15   7   55.96   17.82
   0 -15  -7   27.10   15.61
   0  15  -7   20.88   18.69
 -15  -1   0   -2.54   11.03
  -1  15   0   -1.12    9.78
   1 -15   0   -5.53    8.61
   1 -15   0  -11.78   10.71
  -1  15   0  -15.26    8.50
  15   1   0    0.25    7.86
  15   1   0   -7.67   11.93
  15   1   2    3.57   11.65
   1 -15   2    0.58   13.15
 -15  -1  -2   -0.41   11.40
 -15  -1   2   14.63    9.66
   1 -15  -2   -2.16   13.97
   1 -15   2    1.43   12.96
  -1  15  -2   -2.92    6.16
  -1  15   2   -4.34   12.54
  -1  15   2    8.02   11.72
 -15  -1  -2   10.40   11.57
  15   1   2  -20.45   11.10
 -15  -1   2  -19.20   13.54
  15   1   2   12.54   12.43
  -1  15   2    7.10   11.48
  15   1  -2   -2.27    7.56
  15   1  -2    2.31   11.47
   1 -15   2   -4.18    7.41
   1 -15  -2    4.07   11.75
 -15  -1   2    0.45   11.77
  -1  15  -2    3.12    7.53
   1 -15  -2   14.78   13.00
  -1  15  -2   11.22   12.94
  -1  15   4  -15.08   15.17
   1 -15   4    9.25   16.49
  15   1   4   18.64   13.87
  -1  15   4    5.07   13.76
 -15  -1  -4  -15.90   12.42
 -15  -1  -4    9.72   15.09
   1 -15   4   -0.60   13.99
  15   1   4    4.40   14.22
  15   1  -4   13.42   12.65
  15   1   4    5.92   13.50
  15   1  -4   -6.18    9.59
   1 -15  -4    3.46   15.18
  -1  15   4    5.78   15.49
 -15  -1   4    6.79   14.20
   1 -15  -4   10.99   13.50
  -1  15  -4   -8.61   14.79
   1 -15   4   20.73    9.05
  -1  15   4  -22.74   14.32
   1 -15   6    7.89   12.03
   1 -15   6   13.66   17.17
  -1  15  -6    8.27   17.27
  15   1   6   35.65   17.38
   1 -15   6   31.12   18.79
  15   1  -6  -21.97   13.13
  -1  15   6  -28.71   19.15
  15   1   6   21.45   18.87
  15   1   6    5.23   15.15
 -15  -1   6    5.24   14.85
 -15  -1   6   41.91   18.01
 -15  -1  -6   13.83   12.24
   1 -15  -6   -3.45   15.13
 -15  -1  -6   -5.32   19.53
 -15  -1  -6   36.00   22.44
  -1  15   6   -2.27   15.46
  -1  15  -6   22.02   16.14
 -15  -2  -1    9.36    9.50
 -15  -2  -1   13.63   11.42
  15   2   1   10.11    9.13
   2 -15  -1   16.96   10.14
  15   2   1   15.16   12.85
  -2  15  -1    4.13    9.07
   2 -15   1   21.80    8.12
 -15  -2   1   22.40   13.35
  -2  15   1   19.21   10.32
  -2  15   1    6.61   10.55
   2 -15  -1   47.52   14.22
  15   2  -1    6.31    6.67
  15   2  -1   21.18   11.80
 -15  -2  -1   32.98   12.74
  -2  15   1    7.33   12.31
  -2  15  -1   -1.05   12.92
  -2  15  -1   26.97    7.61
   2 -15  -1   31.31   13.44
  15   2   1   -5.11   12.05
 -15  -2   1   12.22   11.18
   2 -15   1    8.50   14.02
 -15  -2   3   27.08    4.98
 -15  -2  -3   45.98   12.91
   2 -15   3    4.00   15.88
  15   2   3   43.24   13.03
   2 -15   3   61.87   14.30
 -15  -2  -3   68.77   14.27
  15   2   3   40.32   12.47
 -15  -2   3   40.42    4.55
  15   2  -3   62.05    8.45
  -2  15   3   77.36   14.18
  15   2   3   67.78   14.29
   2 -15  -3   41.85   14.31
  15   2  -3   67.66   12.84
 -15  -2   3   62.54   14.54
  -2  15  -3   48.13    6.91
  -2  15   3   79.56   13.97
 -15  -2   3   71.29   13.29
   2 -15   3   50.28    9.11
   2 -15  -3   46.39   13.60
  -2  15  -3   29.71   14.43
   2 -15   5  -18.17   10.99
  -2  15   5   -8.36   15.23
   2 -15   5   -7.19   17.86
   2 -15   5   17.93   15.46
  15   2  -5   27.58   11.06
  -2  15   5  -28.34   14.76
  15   2   5   -8.29   16.66
  -2  15   5    0.78   17.36
 -15  -2  -5   19.53   12.40
  15   2   5    3.22   14.97
  -2  15  -5  -13.63   16.02
 -15  -2   5   -1.80   12.22
 -15  -2   5  -12.61   15.86
   2 -15  -5  -10.76   14.42
 -15  -2  -5   25.01   17.71
  -2  15  -5   -6.80   16.19
  -2  15  -7    8.79   19.01
   2 -15   7   22.09   18.74
 -15  -2   7   37.12   19.13
  -2  15  -7   -1.44   16.42
 -15  -3   0   -1.21   10.44
  15   3   0    1.32    6.76
   3 -15   0   -8.64    9.34
  -3  15   0  -11.68    9.93
  -3  15   0   -4.19    9.92
  15   3   0   -5.59   11.61
   3 -15   2    3.15   14.93
  15   3   2   -0.50   12.19
  -3  15  -2   -4.47    7.79
   3 -15   2    9.87   13.08
  15   3   2    0.57   12.37
  15   3   2   -3.47   10.58
  15   3  -2    0.14    4.99
 -15  -3   2   12.30   13.09
 -15  -3   2    1.20    9.05
   3 -15  -2    0.57   14.14
  15   3  -2   11.10   11.83
  -3  15   2   12.40   12.33
 -15  -3   2  -13.41    6.22
   3 -15   2   -2.45    8.92
  -3  15   2    0.51   11.23
 -15  -3  -2   10.76   10.91
  -3  15  -2    6.35    7.77
  -3  15   2   -5.38   13.34
   3 -15  -2    0.54   12.75
  -3  15  -2    0.58   12.85
 -15  -3   2   -3.30   11.57
 -15  -3  -2  -12.12   12.32
  -3  15   4   35.30   14.77
   3 -15   4    0.76   17.24
  15   3   4   32.02   13.66
 -15  -3   4   27.47   13.58
   3 -15   4   15.41   14.40
 -15  -3  -4   13.86   12.26
  15   3  -4   31.83    8.97
  15   3   4    4.34   14.19
  15   3   4   21.33   14.19
  -3  15   4   19.36   14.14
 -15  -3  -4   20.31   14.81
  -3  15   4   22.65   13.93
 -15  -3   4  -15.19   13.86
  15   3  -4   23.80   12.75
   3 -15  -4   21.58   13.78
   3 -15   4   28.79   10.54
  -3  15  -4    8.71   15.88
   3 -15   6   -8.78   12.57
   3 -15   6   -1.61   17.48
  -3  15   6  -13.65   16.35
   3 -15   6  -12.36   18.71
  15   3  -6   -7.08   11.87
 -15  -3   6   -3.23   14.16
  15   3   6   19.59   18.61
  -3  15   6  -53.55   19.59
   3 -15  -6   14.19   18.91
  -3  15  -6    4.76   17.88
 -15  -3   6   10.73   14.24
  15   3   6    2.82   15.45
 -15  -3   6  -11.25   16.84
 -15  -3  -6    0.88   18.65
   3 -15  -6  -27.31   14.96
 -15  -3  -6   -1.18   12.91
  -3  15  -6   14.91   17.06
  -4  15  -1   58.28    9.54
  -4  15   1   38.44   11.96
  15   4   1   35.00    9.18
 -15  -4  -1   34.57    8.92
 -15  -4  -1   12.86   11.15
  15   4  -1   37.15    3.72
   4 -15  -1   61.12   11.44
   4 -15   1   42.57   10.03
  -4  15   1   27.35   11.01
 -15  -4   1   44.56   13.20
 -15  -4   1   36.26    9.23
  15   4  -1   41.43   11.47
  -4  15   1   41.06   12.70
 -15  -4  -1   43.63   13.35
  -4  15  -1   44.88   12.95
  -4  15  -1   40.83    9.16
   4 -15  -1   41.64   14.00
  15   4   1   35.40   12.18
 -15  -4   1   33.85   10.93
 -15  -4  -3   58.87   13.93
   4 -15   3   45.13   16.39
  15   4   3   46.78   13.38
 -15  -4   3   31.83    6.35
   4 -15   3   60.50   15.27
  -4  15  -3   59.07    7.64
  15   4   3   49.04   13.82
  15   4  -3   37.16    6.56
  15   4   3   55.22   13.11
  -4  15   3   52.07   14.12
 -15  -4   3   43.94   13.66
  15   4  -3   46.79   12.22
  -4  15   3   55.76   13.75
 -15  -4  -3   23.77   12.52
 -15  -4   3   46.24   12.12
 -15  -4   3   34.97    5.23
   4 -15   3   56.60   10.43
   4 -15  -3   41.66   13.72
  -4  15  -3   38.29   15.40
   4 -15   5   11.00   11.71
  15   4   5   11.70   14.90
 -15  -4  -5   12.74   16.64
   4 -15   5    2.93   16.17
  15   4  -5    5.11   10.33
  -4  15   5   -2.14   15.16
  15   4   5   14.28   16.30
  -4  15   5   28.00   17.13
   4 -15  -5    3.21   17.08
  -4  15  -5   14.49   16.36
 -15  -4   5   -3.23   11.86
  15   4   5    6.88   14.79
 -15  -4  -5    5.30   13.56
 -15  -4   5   -4.98   11.87
  -4  15   5   15.44   13.91
   4 -15   5   15.40   18.40
 -15  -4   5   14.63   14.78
   4 -15  -5   11.96   14.09
  -4  15  -5   32.82   18.60
 -15  -4  -7   23.71   13.35
  15   4   7   -8.52   17.18
 -15  -4   7   16.99   18.33
  -4  15  -7    0.79   18.24
  -5  15   0    6.98   10.64
 -15  -5   0   -5.75   10.34
  -5  15   0   -7.29   10.20
  15   5   0    1.65    5.55
  15   5   0   -8.89   13.22
   5 -15   0   19.74   10.50
 -15  -5   0    4.94   12.06
  15   5   0    6.49   11.10
  -5  15   0   10.77   12.94
   5 -15   0   11.06   13.76
   5 -15   2  166.49   19.25
 -15  -5  -2  130.55   15.60
  15   5   2  167.39   15.62
  -5  15  -2  148.51   12.58
   5 -15   2  157.36   16.62
  -5  15   2  147.03   15.04
   5 -15  -2  177.47   15.47
  15   5   2  151.00   14.01
 -15  -5  -2  159.75   14.48
  15   5   2  129.74   16.53
  15   5  -2  147.51   14.44
  -5  15   2  190.36   16.67
 -15  -5   2  132.22   16.02
 -15  -5   2  146.54   10.83
   5 -15   2  155.78   13.85
  -5  15   2  173.45   16.01
  -5  15  -2  158.08   11.76
 -15  -5   2  122.33   14.15
   5 -15  -2  159.84   16.41
  -5  15  -2  129.79   16.92
  15   5   4   -5.74   13.58
   5 -15   4   -9.78   18.48
   5 -15   4   21.22   15.87
 -15  -5  -4   12.53   15.50
  15   5  -4  -17.00    8.32
  15   5   4    0.62   14.41
 -15  -5  -4   -4.09   12.73
  -5  15  -4    7.34    4.08
  -5  15   4   21.04   15.69
 -15  -5   4   -9.94   11.74
   5 -15  -4    3.62   16.06
  15   5   4    5.36   14.53
  -5  15   4   16.10   13.31
 -15  -5   4    6.24   12.92
  -5  15   4   -3.96   13.43
  -5  15  -4    2.02    3.95
   5 -15  -4   -3.91   13.29
   5 -15   4   16.35   11.45
  15   5  -4    4.51   11.30
  -5  15  -4   28.43   16.62
   5 -15   6   -0.54   13.73
  -5  15  -6   36.73   18.63
  15   5   6   22.48   17.18
 -15  -5  -6   -6.11   19.26
   5 -15   6  -19.88   20.84
   5 -15   6    4.22   18.32
  -5  15   6    8.48   15.88
   5 -15  -6   33.48   19.14
  -5  15   6  -25.89   20.24
 -15  -5   6   15.49   14.07
 -15  -5   6   -3.96   13.57
  -5  15   6   11.64   21.05
 -15  -5   6   -7.17   15.66
  15   5   6   -0.76   16.43
  15   5   6   22.30   19.32
   5 -15  -6   23.04   13.56
 -15  -5  -6   18.27   13.76
  -5  15  -6   24.11   18.12
 -15  -6   1   55.84   10.88
  -6  15  -1   69.00   10.63
 -15  -6  -1   51.19    9.33
  15   6   1   73.02    9.67
   6 -15   1   68.82   12.09
  -6  15   1   89.07   12.28
 -15  -6   1   72.74   10.96
  15   6  -1   65.87   11.79
 -15  -6   1   66.15   13.81
  -6  15   1   76.81   14.08
   6 -15  -1   95.42   12.41
  -6  15   1   60.80   12.61
  -6  15  -1   88.12   10.91
   6 -15  -1   77.41   15.22
  15   6   1   63.27   12.30
  -6  15  -3    2.31    7.10
   6 -15   3    3.07   16.28
  15   6   3    3.88   12.42
   6 -15   3    8.97   14.53
  15   6  -3    5.70    3.71
 -15  -6  -3   -0.50   12.77
  15   6  -3    3.92   10.71
  -6  15   3    1.24   14.34
 -15  -6   3    3.31   12.00
  -6  15   3  -19.74   13.35
 -15  -6   3    3.18   10.64
   6 -15   3    4.76   10.97
 -15  -6   3    4.17    5.88
  15   6   3    8.45   14.09
   6 -15  -3    3.32   13.04
 -15  -6  -3   17.94   12.38
  15   6   3    3.03   12.47
  -6  15  -3   31.54   16.23
 -15  -6   5   20.59   11.33
  -6  15  -5  -15.22   17.61
  15   6   5    1.47   15.14
  15   6  -5   23.00   10.14
 -15  -6  -5   15.64   16.97
  15   6   5   -1.52   16.96
   6 -15  -5   25.35   18.08
  -6  15   5   13.14   16.90
 -15  -6   5    0.58   12.93
   6 -15   5   -3.65   18.83
  -6  15   5    5.35   13.36
 -15  -6   5   -1.07   14.06
  15   6   5  -23.60   16.59
  -6  15   5    1.46   15.19
 -15  -6  -5   -1.86   13.65
   6 -15  -5   15.52   13.88
   6 -15   5   25.60   17.54
   6 -15   5   -0.99   12.95
  -6  15  -5  -10.49   18.81
 -15  -6  -7    8.29   14.30
  15   6   7  -18.35   17.83
  -6  15  -7  -12.87   19.41
   7 -15   0   20.35   14.21
 -15  -7   0    3.29    9.81
   7 -15   0   -2.14   11.61
  15   7   0   11.00   12.75
  15   7   0   -8.00    4.11
 -15  -7   0    4.48   10.86
  -7  15   0   -7.14   11.15
  15   7   0   18.41   10.64
  -7  15   0    3.12   10.81
  -7  15   0  -15.37   13.66
 -15  -7   0   -7.93   12.63
   7 -15   2   14.55   15.50
  15   7   2    1.92   11.42
  -7  15  -2    8.23   10.23
 -15  -7  -2   11.40   11.70
   7 -15   2   -7.81   13.66
 -15  -7  -2   -1.91   10.85
  15   7  -2   -1.43   10.20
  15   7   2   -1.54   10.91
  -7  15   2    0.54   13.62
  15   7   2   25.80   13.27
 -15  -7  -2   -9.87   13.66
 -15  -7   2   15.68   12.34
   7 -15   2   -1.62   11.30
 -15  -7   2   -1.54    7.34
   7 -15  -2   -3.62   12.26
  -7  15   2   -2.71   12.99
  -7  15  -2   -8.46    8.88
 -15  -7   2   -1.72    9.58
  -7  15  -2    9.28   14.55
   7 -15  -2   39.63   13.51
  -7  15   2    2.29   12.69
  -7  15   4    1.12   13.23
  15   7  -4   -0.21    6.98
  -7  15   4   -2.06   14.72
  15   7   4  -17.93   14.16
   7 -15   4   13.06   18.57
   7 -15   4   11.62   16.05
 -15  -7  -4   16.17   14.66
  15   7   4    9.59   15.07
  15   7  -4    2.85   10.82
  -7  15  -4    3.32    6.33
   7 -15  -4   -8.15   16.54
  -7  15   4   -5.89   16.53
 -15  -7   4   -6.42    7.66
 -15  -7   4   -9.93   10.99
 -15  -7  -4  -30.49   16.83
  15   7   4  -17.81   15.09
 -15  -7   4   13.47   11.71
   7 -15   4   10.33   12.24
 -15  -7  -4    1.84   13.55
   7 -15  -4   11.17   13.82
  -7  15  -4  -14.11   17.69
  -7  15  -4    1.98    5.86
   7 -15   6   10.64   14.06
 -15  -7  -6   30.91   13.88
  -7  15  -6   10.53   19.52
  15   7   6  -19.29   16.80
 -15  -7  -6   14.80   18.76
   7 -15   6   -7.97   18.45
   7 -15  -6   28.51   19.37
  15   7   6   -8.13   19.05
  -7  15   6  -16.06   19.42
  -7  15   6  -11.11   16.63
 -15  -7   6   -6.01   15.03
 -15  -7  -6   14.85   18.69
  15   7   6   30.84   17.05
   7 -15  -6  -20.20   13.58
  -7  15  -6   23.38   19.43
   8 -15  -1   66.34   15.77
  15   8   1   64.30   12.48
   8 -15   1   75.04   16.94
 -15  -8   1   66.77   10.37
  -8  15  -1   86.84   11.60
  -8  15   1   81.91   13.32
  15   8  -1   48.18   12.85
  15   8   1   57.79    9.27
   8 -15  -1   67.46   12.74
  15   8   1   66.78   14.00
   8 -15   1   71.42   13.05
 -15  -8  -1   62.55   14.11
  -8  15   1   54.27   13.50
 -15  -8   1   74.69   11.12
  15   8  -1   74.01   11.37
  -8  15   1   66.46   13.95
 -15  -8  -1   77.07    9.50
 -15  -8   1   71.54   13.86
  -8  15  -1   80.14   12.04
  15   8   3   -8.33   13.16
   8 -15   3    1.65   18.37
   8 -15   3   10.23   14.41
  -8  15  -3   -2.13   11.26
 -15  -8  -3    9.03   13.12
   8 -15  -3   -5.45   13.48
  15   8  -3    3.84    9.92
 -15  -8  -3   13.92   13.13
   8 -15  -3   -4.76   14.77
  -8  15  -3    9.76    7.69
  -8  15   3   18.83   15.32
  15   8   3   -9.33   12.84
 -15  -8  -3    4.29   14.89
  15   8   3   15.80   14.78
 -15  -8   3   16.25   12.05
  -8  15   3   14.88   12.94
   8 -15   3   20.31   12.51
 -15  -8   3   11.22    7.36
 -15  -8   3    0.71   10.06
   8 -15  -3  -19.88   14.18
  -8  15  -3  -34.21   17.54
  -8  15   5   -4.53   15.86
  15   8  -5   16.63   10.03
   8 -15   5   31.09   20.38
  15   8   5   11.08   16.15
   8 -15   5    8.18   17.77
 -15  -8  -5   27.56   17.27
 -15  -8   5    0.54   12.40
  15   8   5    2.33   17.31
   8 -15  -5  -12.52   17.18
 -15  -8   5   -3.89   10.19
  -8  15   5   -1.71   18.14
  -8  15   5    7.47   13.30
 -15  -8   5  -15.59   12.37
  15   8   5   -3.92   17.21
 -15  -8  -5   87.99   15.47
 -15  -8  -5   -0.87   17.74
   8 -15  -5    7.31   13.71
   8 -15   5   15.52   13.40
  -8  15  -5   18.85   19.78
 -15  -8  -7   17.91   15.24
  15   8   7   10.69   18.79
  -8  15  -7  -16.41   19.48
   9 -15   0    9.36   14.87
 -15  -9   0  -21.76   12.56
 -15  -9   0   -0.77    3.65
  15   9   0    4.21   13.03
 -15  -9   0    6.31   11.48
   9 -15   0   -4.86   12.30
  -9  15   0  -14.32   12.66
  15   9   0   -1.82   10.68
  -9  15   0   -4.25   13.54
 -15  -9   2   16.28    9.00
   9 -15   2  -13.49   14.86
  -9  15  -2   18.37   11.41
  15   9   2   11.02   12.02
 -15  -9  -2   18.30   10.81
 -15  -9  -2    5.36   12.74
   9 -15  -2   22.48   13.14
  15   9   2   -2.71   10.76
  15   9  -2   17.57    9.79
   9 -15  -2   20.85   14.89
  -9  15   2    5.28   13.83
 -15  -9  -2   21.26   14.08
  -9  15   2   -4.29   13.58
 -15  -9   2   24.58    8.81
  -9  15   2    2.21   12.73
 -15  -9   2   -3.07   12.01
   9 -15   2   28.20   12.78
  -9  15  -2   11.37   15.70
   9 -15  -2   19.18   13.98
  15   9   4   14.82   13.83
 -15  -9   4    1.74    6.15
  15   9  -4   -5.56    5.88
   9 -15   4   19.21   17.00
 -15  -9  -4  -16.83   15.35
  -9  15  -4  -12.53    7.45
 -15  -9   4    6.46   10.63
  15   9   4    0.65   14.86
  -9  15  -4    5.01    8.29
   9 -15  -4   27.36   17.20
  -9  15   4  -23.79   17.29
 -15  -9   4   -3.55    5.72
 -15  -9  -4  -22.64   17.12
  -9  15   4    5.76   14.63
 -15  -9  -4   19.44   13.38
  -9  15   4   -9.94   12.90
  15   9   4    6.03   15.22
   9 -15   4  -25.06   19.52
 -15  -9   4    6.54   10.21
   9 -15   4   18.15   13.92
   9 -15  -4    1.71   14.15
  -9  15  -4   19.91   17.34
  -9  15  -6   -5.55   20.72
 -15  -9  -6   -5.02   15.10
 -15  -9  -6   20.07   19.05
  15   9   6  -11.02   19.47
 -15  -9  -6   24.78   19.16
  15   9   6   28.43   17.81
  -9  15   6   -7.38   16.82
   9 -15   6   12.90   15.47
 -15 -10   1   -0.53   11.99
  15  10   1    0.41   10.77
  10 -15  -1   -2.60   14.68
  10 -15   1  -28.43   17.52
 -15 -10   1    5.68    8.78
 -15 -10  -1   -2.05    8.36
  15  10  -1   -1.18   13.25
 -15 -10  -1   23.74   13.00
  10 -15  -1   -8.73   13.37
  15  10   1   -3.55    8.16
  15  10   1  -10.24   13.76
  10 -15   1   -5.96   12.51
 -15 -10  -1   16.31   12.85
  15  10  -1    9.91    9.35
 -15 -10   1  -13.81   11.77
 -10  15   1   14.27   13.21
 -10  15   1   -5.78   13.32
 -10  15  -1   -0.68   15.46
 -10  15  -1   -0.96   12.03
  10 -15   3  -15.93   15.80
  10 -15   3  -18.45   18.68
  15  10   3   11.16   12.67
 -10  15  -3   -7.30   11.79
  10 -15  -3   11.05   14.49
  15  10  -3   -6.89    9.10
  15  10   3    4.72   13.34
 -15 -10  -3  -20.97   13.69
  10 -15  -3  -16.89   16.38
 -10  15   3   40.65   16.01
 -15 -10  -3   -6.70   14.66
  15  10   3   -0.72   14.31
 -15 -10  -3   -7.12   13.04
 -10  15   3   -6.65   13.01
  10 -15   3   22.67   13.88
 -15 -10   3    0.31    7.63
 -15 -10   3  -11.17   10.77
 -15 -10   3   17.83    8.36
  10 -15  -3   17.91   15.36
 -10  15  -3   10.31   17.47
 -10  15  -5  -26.48   19.69
  10 -15   5    6.02   18.07
  15  10   5   11.22   15.87
 -15 -10  -5   -4.52   17.23
 -10  15   5    5.54   16.48
  15  10   5  -23.79   18.62
  10 -15  -5    7.67   18.95
 -10  15   5   13.25   19.30
 -15 -10  -5   -9.86   18.52
 -10  15   5    6.17   13.81
 -15 -10   5   -5.62   10.39
  15  10   5    1.65   16.23
  10 -15   5   -8.25   20.56
  10 -15   5   -6.13   14.74
 -15 -10  -5    0.70   15.15
  10 -15  -5   -5.11   14.21
  10 -15   7   14.18   16.93
  11 -15   0   -8.67   16.04
 -15 -11   0    3.95   12.75
 -15 -11   0   -3.65    3.99
  11 -15   0    3.25   13.34
  15  11   0  -13.73   13.76
 -15 -11   0    7.90   12.09
 -11  15   0  -11.72   12.86
  15  11   0   -1.37    9.83
 -11  15   0   12.97   15.10
 -15 -11   2   -0.52   11.74
  11 -15  -2  -20.54   15.30
 -15 -11  -2   -2.74   10.52
 -11  15  -2   -2.02   11.92
 -15 -11   2    7.36    7.92
  15  11   2    1.44   12.24
  15  11  -2    3.45   13.26
  15  11   2    8.50   10.78
  15  11  -2   11.39    8.89
  11 -15  -2  -13.63   15.21
 -11  15   2    4.59   12.96
 -11  15   2   17.19   14.69
 -15 -11  -2  -26.60   14.97
  11 -15   2  -19.30   14.01
 -15 -11   2    8.67   10.38
 -11  15   2   -0.57   13.72
  11 -15  -2   -6.76   13.63
 -11  15  -4   15.89   18.99
 -11  15   4  -22.81   16.66
  11 -15   4   26.75   18.05
 -15 -11  -4   -7.60   14.88
  15  11   4  -15.68   14.23
  15  11   4   18.68   15.09
 -15 -11   4   -1.41    4.09
 -11  15  -4    8.41    9.88
  11 -15  -4   -5.20   15.61
 -11  15   4   -4.79   17.90
 -15 -11  -4   10.08   16.95
 -11  15   4    4.42   13.57
 -15 -11  -4   -2.73   14.35
 -15 -11   4    4.26    8.19
  11 -15   4   28.65   14.91
  11 -15   4   -2.95   21.31
  11 -15  -4   19.41   17.59
 -15 -11   4   -6.97   10.01
 -15 -11   4    8.36    8.16
  11 -15  -4   18.39   14.82
 -11  15  -6    0.98   21.79
 -15 -11  -6   20.75   15.92
 -15 -11  -6  -22.08   19.06
  15  11   6   26.26   19.61
  11 -15   6   -8.46   16.57
  15  12   1   -8.58   10.92
  12 -15  -1    7.78   16.55
  12 -15   1   -4.83   16.72
 -15 -12   1   21.92   12.04
  12 -15  -1   -5.48   14.22
  12 -15   1   13.22   15.71
 -15 -12  -1   -2.46    8.61
 -15 -12  -1   15.05   11.77
  15  12  -1    4.30   13.76
  15  12   1    7.06    9.04
  12 -15   1   12.89   14.28
  15  12   1    7.39   13.76
  15  12  -1   -8.04    8.76
 -15 -12  -1   -1.23   13.33
 -15 -12   1    5.50   12.28
 -12  15   1    9.64   13.93
 -12  15   1   19.66   14.51
 -12  15  -1  -13.74   16.44
 -12  15  -1   -4.87   13.22
 -12  15  -3   35.43   19.05
  12 -15  -3   30.44   16.24
 -15 -12   3   31.30    7.16
 -15 -12   3   37.85   11.62
  12 -15   3   16.87   18.53
 -12  15  -3   27.54   12.96
 -15 -12  -3   27.50   13.52
  15  12  -3   17.16    8.03
  12 -15  -3   48.71   15.82
  15  12   3   35.91   13.44
  12 -15  -3   41.50   16.94
 -12  15   3   24.24   17.34
 -15 -12  -3   30.75   14.60
  15  12   3   13.01   13.02
 -15 -12  -3   34.46   16.65
  15  12   3   28.24   15.19
 -12  15   3   36.20   14.11
  12 -15   3   42.13   14.98
 -15 -12   3   30.78   10.17
 -12  15  -5   82.95   22.59
 -15 -12  -5   56.41   16.21
  12 -15   5   62.44   23.59
  12 -15   5   64.04   19.74
  15  12   5   76.16   17.12
 -15 -12  -5   46.39   18.28
  12 -15  -5   74.02   20.07
  15  12   5   58.37   18.62
 -12  15   5   67.43   20.63
 -15 -12  -5  107.40   20.29
 -12  15   5   67.95   14.45
 -12  15   5   40.81   18.39
  12 -15   5   86.69   17.74
  12 -15  -5  105.36   15.95
 -15 -12   5   76.51   13.31
  13 -15   0   24.24   16.99
 -15 -13   0   -6.06    4.92
 -15 -13   0   -5.27   12.48
  15  13   0   -4.56   14.36
 -15 -13   0   -5.79   13.41
 -13  15   0    4.73   13.53
  15  13   0   -0.97    9.62
 -13  15   0    6.85   15.65
  13 -15   0   10.84   14.22
  13 -15  -2  -10.29   17.16
  15  13   2   40.93   12.07
 -13  15  -2   -0.57   12.84
 -15 -13   2   -1.60   12.07
  15  13   2   -3.88   12.22
  13 -15   2   -0.90   19.56
 -15 -13  -2   -2.45   11.57
  15  13  -2   33.12   14.21
  13 -15  -2   17.50   15.10
  13 -15   2   35.81   17.23
  15  13  -2   20.49    7.80
  13 -15  -2    4.27   16.00
 -15 -13  -2   -4.98   15.04
 -13  15   2    6.20   15.67
  13 -15   2   10.86   14.94
 -15 -13   2   14.66   11.84
 -13  15   2   18.30   13.92
 -13  15  -4  -29.82   20.42
  13 -15  -4    1.86   15.68
 -15 -13   4    8.84    9.69
 -13  15   4    2.41   17.04
  13 -15   4   26.11   21.80
  15  13   4   -8.66   14.78
 -15 -13  -4    4.52   14.86
  13 -15  -4   25.14   16.26
  15  13   4  -10.79   15.65
 -13  15  -4    3.80   10.69
  13 -15  -4   -0.80   17.29
 -13  15   4    7.55   18.22
 -13  15   4   11.08   13.44
  13 -15   4   -9.96   15.84
 -15 -13  -4    4.33   14.75
 -15 -13   4   19.76    7.77
 -15 -13   4    8.27   10.48
  15  13   6   11.47   20.11
  13 -15   6   22.15   17.43
  15  14   1   -4.04   10.71
  14 -15  -1   -3.03   17.22
  14 -15   1  -20.68   18.65
  14 -15   1   -4.90   16.13
 -15 -14   1   16.43   13.15
 -15 -14  -1   -0.30    9.52
  15  14  -1   10.85   14.39
 -15 -14  -1    2.52   13.53
  14 -15   1  -23.17   15.34
  14 -15  -1   13.34   15.05
  15  14  -1   -9.48    8.40
  15  14   1   -5.66   14.95
 -15 -14  -1  -23.20   14.78
 -15 -14   1  -10.57   12.97
 -14  15   1   12.47   15.60
 -14  15   1   -7.88   15.03
 -14  15  -1    2.29   17.16
 -14  15  -1  -14.46   14.30
 -15 -14   3   42.46    5.53
  14 -15  -3   55.51   17.26
  15  14   3   61.56   14.74
  15  14   3   25.88   13.97
  14 -15   3   43.77   18.41
 -15 -14  -3   65.38   14.43
  14 -15  -3   79.88   16.97
 -14  15  -3   82.46   15.13
 -14  15   3   36.10   17.70
 -15 -14  -3   32.44   17.07
  14 -15  -3   57.85   17.76
 -15 -14  -3   42.94   14.70
  14 -15   3   56.18   16.99
 -14  15   3   45.19   14.23
 -15 -14   3   63.44   12.45
 -15 -14   3   53.64   12.34
 -14  15  -5  -15.44   21.89
  15  14   5    3.89   16.76
 -15 -14  -5   -5.42   16.99
 -14  15   5   14.07   18.15
  14 -15  -5   31.03   19.46
  15  14   5   29.53   17.51
 -15 -14  -5   13.48   16.12
  14 -15   5   29.75   17.27
  15  14   5   36.12   17.90
  15 -15   0   22.59   18.85
 -15 -15   0    5.41    6.47
 -15 -15   0   26.68   13.24
  15 -15   0  -37.80   16.06
  15  15   0   17.13   14.65
 -15 -15   0  -18.52   14.09
  15  15   0    3.94    9.51
 -15  15   0    7.15   14.76
 -15  15   0    3.66   16.89
  15 -15  -2  -16.92   17.56
 -15  15  -2  -22.13   13.83
  15  15   2    7.38   12.61
  15 -15   2    7.73   17.43
 -15 -15   2   -9.84   11.89
 -15 -15  -2   -2.15   11.93
  15  15  -2    5.57    5.21
  15  15  -2    2.53   14.62
  15 -15  -2   22.54   16.31
  15  15   2    0.44   12.21
  15 -15  -2    2.97   16.55
 -15 -15  -2    6.13   13.53
 -15 -15  -2   10.60   15.13
  15 -15   2    4.70   16.11
 -15  15   2  -15.55   16.55
  15 -15   2    6.70   20.54
 -15 -15   2   17.72   13.41
 -15  15   2  -11.70   14.54
 -15  15  -2   -7.61   19.12
 -15 -15  -4    9.19   15.60
 -15  15  -4    7.95   21.06
  15 -15  -4   16.80   15.70
 -15  15   4    9.37   16.75
  15 -15   4   17.74   21.04
 -15  15  -4    6.38   11.78
  15 -15   4   -5.38   18.77
 -15 -15   4   -9.24    9.60
 -15 -15  -4  -11.95   15.45
  15 -15  -4    2.51   17.48
  15 -15  -4    6.51   18.26
  15  15   4   16.35   15.69
  15  15   4   14.29   15.25
 -15  15   4    4.44   19.00
 -15  15   4    7.32   13.78
  15 -15   4  -27.01   17.03
  15  15   4  -33.96   17.16
 -15 -15   4   13.66   12.85
 -16  15  -1   11.35   15.21
  15  16   1    3.62   10.64
  16 -15  -1  -11.35   18.36
 -15 -16  -1  -13.41    9.72
 -15 -16   1  -18.10   12.87
  16 -15  -1   -7.26   15.98
  15  16  -1    2.68   14.30
 -15 -16  -1  -28.35   13.99
  16 -15   1  -16.64   16.09
  15  16  -1   -2.26    7.45
  16 -15   1   11.10   20.05
 -15 -16  -1  -12.23   15.16
  15  16   1   28.48   15.36
 -15 -16   1    6.20   13.92
 -16  15   1   20.62   15.63
  16 -15   1  -22.26   17.12
 -16  15   1    1.38   15.69
 -16  15  -1   15.51   18.62
  16 -15  -3    2.81   16.22
 -16  15  -3    1.36   15.10
  16 -15   3  -11.96   18.33
 -15 -16  -3    9.47   14.01
 -16  15  -3  -16.91   13.88
 -15 -16   3  -14.06   11.70
  16 -15  -3   -4.02   17.82
  16 -15  -3  -20.17   17.71
  15  16   3  -11.67   13.87
  15  16   3    1.76   13.96
  15  16  -3   12.05   12.49
 -16  15   3   -5.86   17.70
 -15 -16  -3  -11.12   17.39
  16 -15   3   21.28   17.75
 -16  15   3   -1.79   14.51
 -15 -16   3  -29.72   13.14
  15  16   5    0.80   17.18
 -15 -16  -5   11.12   17.64
  16 -15  -5  -26.11   19.57
  15  16   5  -10.85   18.37
  16 -15   5   15.37   18.46
  16 -14   0    2.49   17.83
 -14 -16   0   12.95    8.18
 -14 -16   0   16.59   13.50
  16 -14   0   25.16   15.25
  14  16   0    7.43   14.05
 -14 -16   0   16.27   14.25
 -16  14   0   16.65   14.72
  14  16   0   19.56    8.58
 -16  14   0   -5.13   16.52
 -16  14  -2   -7.67   19.13
  16 -14   2    0.76   17.46
 -16  14  -2   -0.66   14.32
  16 -14  -2    4.99   16.60
  14  16   2    4.28   12.03
  16 -14   2   10.56   18.15
 -14 -16  -2   -6.75   11.99
 -14 -16   2   -0.52   11.26
  16 -14  -2    0.74   16.52
  14  16  -2    7.33   13.55
  14  16   2   -9.33   12.85
  16 -14  -2  -13.70   16.65
  14  16  -2   32.38   12.83
 -14 -16  -2   14.55   15.95
  16 -14   2    9.72   15.97
 -16  14   2   -9.71   16.81
 -14 -16  -2    0.68   13.32
 -14 -16   2   -8.37   13.60
 -16  14   2   -2.41   14.48
  14  16   2    5.06   14.30
 -16  14  -4    1.00   21.51
  16 -14  -4    3.02   15.17
 -14 -16  -4   29.27   15.63
  16 -14   4   27.68   18.88
 -14 -16  -4   18.20   15.38
 -14 -16   4   13.44    9.25
  16 -14  -4   14.23   16.52
  14  16   4   35.30   16.30
 -16  14  -4    8.35   12.36
  14  16  -4   -0.45   11.88
 -16  14   4    1.79   19.72
 -14 -16  -4   36.96   18.46
 -16  14   4   37.44   13.44
  16 -14   4   16.63   17.63
  14  16   4   29.98   16.85
 -14 -16   4   22.25   14.11
 -16  13  -1  -24.61   17.33
 -16  13  -1   -5.77   14.28
  16 -13   1   -3.40   15.51
  13  16   1    2.17   10.15
  16 -13  -1   27.10   16.25
  16 -13   1    2.58   18.43
 -13 -16   1    3.02    5.83
  16 -13  -1    7.60   15.34
 -13 -16   1    0.53   11.51
  13  16  -1   18.92   13.63
  13  16  -1    4.35    5.02
  13  16  -1   14.58   13.50
  16 -13   1   11.97   15.22
 -13 -16  -1   -6.42   10.27
 -13 -16   1    4.87    4.72
 -13 -16  -1   -0.61   12.26
 -13 -16  -1   14.47   14.34
 -13 -16   1    5.92   13.46
 -16  13   1   13.55   14.54
  13  16   1   -5.20   13.25
 -16  13   1    8.25   15.52
  16 -13  -3   59.72   16.64
 -16  13  -3   90.99   15.92
  16 -13   3   93.68   18.85
 -13 -16   3   52.27    6.35
  13  16  -3   54.52   13.86
 -13 -16  -3   45.78   14.10
 -16  13  -3   47.72   14.57
 -13 -16   3   83.09   11.74
  16 -13  -3   90.92   17.58
  13  16   3   63.85   15.49
  13  16  -3   89.83   13.48
 -16  13   3   98.82   18.92
  16 -13   3   80.14   17.81
 -16  13   3   65.20   14.57
 -13 -16   3   80.97   14.59
  13  16   5   44.38   17.55
 -13 -16  -5    2.44   16.50
 -13 -16  -5   12.65   17.25
  13  16   5   10.91   18.43
  16 -13  -5   14.40   18.60
 -16  13   5  -10.53   18.20
  16 -13   5   17.51   17.84
  16 -12   0   -2.30   16.79
 -12 -16   0   19.48    8.74
  16 -12   0   23.98   15.21
  12  16   0   10.76   14.37
 -12 -16   0   13.04   12.24
 -12 -16   0   23.09   13.50
 -16  12   0    8.26   14.00
 -16  12   0  -33.41   16.53
  12  16   0    8.12    7.51
  16 -12   2   19.09   18.59
 -16  12  -2   -8.16   18.36
 -16  12  -2   17.77   14.09
  16 -12  -2    7.62   15.78
  16 -12   2   16.27   15.85
 -12 -16   2   10.59    5.20
  12  16   2   18.04   11.50
 -12 -16  -2   11.70   12.29
  16 -12  -2   10.59   15.20
 -12 -16   2    7.88    6.38
  12  16  -2   -1.09   12.67
 -12 -16   2   27.78   10.66
  16 -12  -2   10.39   14.95
  12  16  -2   21.99   12.99
 -12 -16  -2   18.15   15.09
 -16  12   2   29.12   16.54
  16 -12   2   34.76   15.73
 -12 -16   2   15.15   13.42
 -16  12   2   11.44   13.72
 -12 -16  -2   18.37   13.33
  12  16   2    0.68   14.44
 -12 -16   4   25.11   14.55
  12  16   4   19.70   16.08
 -16  12  -4   -7.93   21.12
  12  16  -4   -0.46   11.80
  16 -12  -4    5.59   13.21
  16 -12   4  -17.67   19.20
 -12 -16  -4    2.21   15.19
  16 -12  -4    3.23   16.92
 -12 -16  -4    0.67   15.38
 -12 -16   4  -25.79    8.07
  16 -12  -4   14.65   16.60
  12  16   4    2.10   16.28
 -12 -16   4    8.69    7.98
 -16  12  -4   13.35   11.99
 -12 -16  -4  -25.46   17.62
 -16  12   4    4.05   11.83
  16 -12   4    0.74   17.17
  16 -12  -6   29.39   19.66
 -16  11  -1   17.18   13.26
 -16  11  -1   23.32   16.31
  16 -11  -1   33.26   15.60
  16 -11   1   54.15   15.05
  16 -11   1   30.77   17.44
  11  16   1   32.88    9.64
 -11 -16   1   27.04    8.23
 -11 -16  -1   42.61   11.19
 -11 -16   1   16.38    8.17
  16 -11  -1   20.20   14.57
  11  16  -1   25.77   13.36
 -11 -16   1   30.15   11.67
  16 -11   1   36.89   14.63
  11  16  -1   29.18   12.69
 -11 -16  -1   -1.97   14.70
 -16  11   1   27.67   14.14
 -11 -16   1   21.11   13.71
 -11 -16  -1   27.20   12.80
 -16  11   1   10.02   14.38
  11  16   1   33.10   14.78
  11  16   1    5.44   13.29
  11  16  -3  153.79   15.11
  16 -11  -3   98.67   16.86
 -16  11  -3  160.88   17.72
  16 -11   3  140.32   19.65
 -11 -16   3  119.42   10.31
 -11 -16  -3  127.05   16.52
  11  16  -3  135.78   15.08
 -16  11  -3  134.49   15.97
  16 -11  -3  147.21   18.22
  11  16   3  140.44   17.15
 -11 -16   3  146.65   12.56
 -16  11   3  161.85   15.38
  16 -11   3  184.51   18.70
 -11 -16   3  138.58   16.69
 -16  11  -5   23.19   22.15
  11  16   5   42.58   18.10
 -11 -16  -5   -4.72   17.54
  16 -11   5   44.13   19.40
  16 -11  -5   18.02   17.52
  16 -11  -5   27.13   17.96
  11  16   5   -1.68   19.03
 -16  11   5   10.04   19.86
 -11 -16  -5    4.69   16.03
 -11 -16  -5   13.26   17.78
 -16  11  -5   22.58   19.84
  16 -11   5   22.76   17.48
 -16  10   0   24.25   15.97
  10  16   0   13.36    7.17
  16 -10   0   24.87   13.40
  16 -10   0   -4.98   15.92
 -10 -16   0   13.03    9.42
  16 -10   0   13.64   14.55
  10  16   0   11.52   13.20
 -10 -16   0  -14.96   13.25
 -10 -16   0   22.58   10.86
 -16  10   0   38.10   13.87
  10  16   0    9.14   12.28
 -16  10  -2   13.54   17.13
 -16  10  -2    5.23   13.81
 -10 -16  -2   23.95   12.48
  10  16   2   -2.55   13.65
 -16  10  -2    5.52   13.87
  16 -10  -2   11.80   14.20
  16 -10   2    4.32   17.49
 -10 -16  -2    4.35   12.67
  16 -10   2   19.67   14.80
 -10 -16   2   10.62    7.51
  16 -10  -2   15.07   14.09
  10  16   2   12.20   15.06
  10  16  -2   12.07   11.39
 -10 -16   2   -0.41    9.26
 -10 -16  -2   20.14   14.86
  16 -10   2   16.72   15.23
  10  16  -2    4.70   12.23
 -10 -16   2   17.19   12.46
 -16  10   2    0.49   12.62
 -10 -16   4   80.00   16.34
 -16  10  -4  102.06   22.35
  16 -10  -4   96.31   13.53
  10  16   4   77.59   17.05
 -16  10  -4   66.81   19.62
  16 -10   4   82.17   18.40
 -10 -16   4   77.17   11.25
  16 -10  -4   64.86   18.03
 -10 -16  -4  104.33   17.15
  16 -10  -4   88.11   16.99
 -10 -16  -4   68.22   16.61
  10  16   4   51.04   17.41
 -16  10   4   84.27   19.10
 -16  10  -4   85.65   14.33
  10  16  -4  107.04   13.65
 -10 -16  -4   97.32   17.84
 -16  10   4   92.42   11.91
 -10 -16   4   75.02    9.00
  16 -10   4   79.51   17.56
  16 -10  -6  -34.92   19.47
 -16  10   6   -0.85   16.93
 -16   9  -1    7.04   13.01
  -9 -16  -1   14.93   11.61
 -16   9  -1   22.54   16.38
   9  16   1   37.95   13.16
  16  -9  -1  -18.27   14.39
  16  -9   1   16.79   16.62
  -9 -16  -1   24.30   11.84
  -9 -16   1    7.87    9.12
  16  -9   1   21.57   13.85
   9  16   1    2.58   13.48
   9  16  -1  -10.53   13.24
  16  -9   1    6.13   14.56
  -9 -16  -1   10.04   13.31
  -9 -16   1   14.38   12.62
  -9 -16   1   -2.19   10.71
   9  16  -1    4.21   11.48
 -16   9   1   16.26   13.85
  16  -9  -3   50.38   12.87
 -16   9  -3   56.30   14.67
  16  -9   3   49.88   15.72
  -9 -16   3   66.81    9.93
  -9 -16  -3   75.45   15.12
  16  -9  -3   79.62   16.76
   9  16  -3   49.10   11.88
 -16   9  -3   52.05   13.71
  16  -9  -3   76.11   15.13
   9  16   3   46.52   15.22
 -16   9   3   57.40   16.78
   9  16  -3   77.69   13.27
  -9 -16  -3   72.66   15.96
  -9 -16   3   56.49    9.24
 -16   9   3   59.39   11.45
  16  -9   3   69.99   16.09
  -9 -16   3   57.42   14.68
   9  16  -5   33.33   12.87
 -16   9  -5   44.69   12.20
  -9 -16   5   39.32   15.82
 -16   9  -5   40.57   21.20
  16  -9  -5   31.61   16.87
  16  -9   5   41.88   18.29
  16  -9  -5   45.07   17.82
  -9 -16  -5   18.88   18.04
  -9 -16   5   31.21   12.32
   9  16   5   42.08   19.72
 -16   9  -5   -1.74   18.84
 -16   9   5   54.98   20.21
  -9 -16  -5   57.83   18.37
   9  16   5   20.93   16.59
  -9 -16  -5   66.00   16.63
  16  -9   5   35.72   17.53
 -16   8   0   35.88   15.83
  -8 -16   0   45.95   11.78
   8  16   0   29.79   11.78
  16  -8   0   19.19   15.78
   8  16   0   36.66    6.87
  -8 -16   0   30.55   10.57
  16  -8   0   40.85   13.40
   8  16   0   18.66   12.82
  -8 -16   0   64.93   13.42
 -16   8   0   36.78   14.25
   8  16   0   33.44    6.36
 -16   8  -2   68.76   18.24
 -16   8  -2   31.41   13.25
  16  -8  -2   37.89   13.26
  -8 -16   2   28.56    9.72
  16  -8   2   34.73   14.78
 -16   8   2   24.78   14.60
  -8 -16  -2   21.19   13.21
 -16   8  -2   14.30   13.25
  -8 -16  -2   56.78   13.23
  16  -8  -2   93.19   15.69
  16  -8  -2   39.96   13.36
   8  16  -2   49.37   12.91
   8  16  -2   56.58   11.78
  16  -8   2   67.45   14.80
  -8 -16   2   34.00   13.93
 -16   8   2   42.37   11.86
  -8 -16   2   48.34    9.99
   8  16   2   33.71   13.17
  16  -8  -4  -10.41    9.77
  -8 -16   4   18.72   15.51
  -8 -16   4  -15.46    6.58
 -16   8  -4   -5.74   19.25
   8  16   4  -18.12   15.83
  16  -8   4  -16.74   16.85
  -8 -16   4   -5.16   10.99
  16  -8  -4    7.38   16.08
  16  -8  -4  -22.88   15.23
   8  16   4   -7.14   16.40
 -16   8  -4  -13.59   17.51
 -16   8   4  -13.10   17.44
  -8 -16  -4   53.32   16.48
  -8 -16  -4   -6.17   14.11
 -16   8   4   19.18    9.19
   8  16  -4   -2.02   12.53
  -8 -16  -4   32.91   16.03
  16  -8   4    4.25   15.56
  16  -8   6   18.81   18.64
   8  16   6   -6.85   17.94
  -8 -16   6   -1.72   14.12
  16  -8  -6  -28.57   18.61
  -8 -16  -6   -5.68   16.60
   8  16   6   -5.84   20.64
 -16   8   6    0.80   16.71
  -8 -16  -6   20.07   17.18
 -16   7   1   27.86   13.61
   7  16  -1   35.10   11.20
 -16   7  -1   42.68   13.23
 -16   7  -1   29.75   15.88
  -7 -16   1   38.43   10.18
  16  -7  -1   21.57   13.90
  -7 -16  -1   35.54   11.41
 -16   7  -1   28.84   14.03
  -7 -16  -1   41.95   11.96
  16  -7  -1   32.51   14.22
   7  16   1   28.53   13.92
   7  16  -1   55.70   12.95
  -7 -16  -1   37.74   13.49
   7  16   1   35.62   12.65
  -7 -16   1   21.20   13.40
  16  -7   1   35.92   13.21
 -16   7  -3  161.83   18.33
  16  -7  -3  153.59   14.47
  -7 -16   3  154.35   14.24
  16  -7   3  171.32   18.44
 -16   7  -3  161.53   18.01
  -7 -16  -3  136.23   17.18
  16  -7  -3  173.29   18.41
  16  -7  -3  153.52   17.05
   7  16  -3  131.76   13.38
   7  16   3  191.25   18.30
 -16   7  -3  177.59   16.64
   7  16   3  188.63   19.65
 -16   7   3  157.24   18.92
  -7 -16  -3  152.79   17.84
   7  16  -3  146.44   16.33
  -7 -16   3  166.98   12.41
 -16   7   3  159.01   13.45
  16  -7   3  196.54   18.79
  -7 -16   3  180.34   17.61
  16  -7   5    7.73   16.42
 -16   7  -5  -33.28   11.86
  -7 -16   5  -20.86   15.99
 -16   7  -5   -3.11   20.83
 -16   7  -5  -58.20   19.73
  -7 -16  -5    7.40   15.43
  16  -7   5   51.64   18.52
  16  -7  -5   16.39   16.98
   7  16   5  -14.73   15.84
  -7 -16   5   -5.51   12.72
  -7 -16  -5   -9.44   17.91
  16  -7  -5  -24.58   16.15
   7  16   5   21.03   18.38
 -16   7   5  -18.35   18.38
  -7 -16  -5   -0.80   16.40
   7  16  -5    3.59   12.99
  16  -7  -7   40.99   19.19
 -16   7   7   15.52   17.08
 -16   6   0  170.94   17.62
  16  -6   0  125.46   14.50
   6  16   0  155.68   14.37
   6  16   0  139.22    9.81
  -6 -16   0  150.39   13.79
  -6 -16   0  124.64   13.59
   6  16   0  115.21   15.97
  -6 -16   0  135.38   16.22
 -16   6  -2    9.08   16.81
 -16   6  -2   53.30   13.41
  16  -6  -2   41.44   11.73
  16  -6   2   48.90   13.91
  -6 -16   2   45.32    9.67
   6  16   2   37.24   12.62
  -6 -16  -2   30.14   13.31
 -16   6  -2   60.91   13.65
  16  -6  -2   49.02   14.79
  16  -6  -2   34.99   12.71
  -6 -16  -2   49.23   12.46
   6  16  -2   71.86   13.62
 -16   6   2   37.70   13.84
  16  -6   2   53.89   14.17
   6  16  -2   47.23   10.09
  -6 -16   2   31.92   10.80
  -6 -16   2   56.28   13.75
 -16   6   2   28.94   11.35
  16  -6   4   26.48   15.63
  -6 -16   4   28.83   16.15
  -6 -16  -4   39.45   14.34
 -16   6  -4   74.48   20.64
 -16   6  -4   12.34   16.70
  -6 -16   4   32.20   12.07
  16  -6   4   34.22   16.39
  16  -6  -4   37.11   15.18
  -6 -16  -4   42.76   15.70
   6  16   4   53.19   15.55
  16  -6  -4   34.73   14.42
 -16   6   4   20.46   17.38
 -16   6   4   36.36    7.25
  -6 -16  -4   36.58   16.23
   6  16  -4   39.12   13.17
   6  16   4   53.94   16.86
  -6 -16   4   32.00    6.62
 -16   6  -4   50.95   12.80
   6  16  -6   -5.47   15.00
  16  -6   6   14.55   17.97
  -6 -16  -6    8.78   16.18
 -16   6  -6    5.49   21.95
  16  -6  -6   17.29   16.77
   6  16   6   -8.33   16.81
  -6 -16   6    1.84   14.73
  -6 -16  -6  -10.66   18.41
   6  16   6   30.06   20.33
 -16   6   6  -12.71   20.19
  -6 -16  -6  -16.73   16.67
 -16   5   1    1.90   12.75
 -16   5  -1    3.28   15.80
   5  16   1    6.08    9.21
 -16   5  -1   14.53   14.29
   5  16   1   13.05   11.77
  -5 -16   1   20.18    9.60
  -5 -16  -1   13.27   12.05
  16  -5  -1   20.22   13.58
  -5 -16  -1   18.57   11.44
   5  16   1   14.13   13.80
   5  16  -1   10.69   10.50
   5  16  -1   26.57   12.52
 -16   5   1   -0.54   13.36
  -5 -16   1   27.84   13.19
  16  -5   1   41.33   12.59
  -5 -16   3    1.16   14.63
  16  -5   3   16.21   14.26
   5  16   3   -3.23   12.91
 -16   5  -3   20.83   12.71
  -5 -16  -3  -12.63   14.34
  16  -5  -3   22.17   14.25
  16  -5  -3    0.48   12.38
   5  16   3  -19.79   14.88
 -16   5  -3   14.02   14.41
   5  16   3   -1.37   15.24
   5  16  -3   -2.69    8.61
 -16   5  -3    9.76   12.29
 -16   5   3    2.55   14.83
  -5 -16   3    7.66   11.58
  -5 -16   3   13.64    7.40
  -5 -16  -3    6.03   13.44
   5  16  -3   18.21   12.81
 -16   5   3   -9.51    8.53
  16  -5   3   19.58   14.30
  -5 -16   5    2.91    6.33
  16  -5   5   -0.77   16.70
 -16   5  -5    6.60   18.41
  -5 -16   5  -23.09   16.27
 -16   5  -5   13.32   20.29
 -16   5  -5    8.53   12.25
  16  -5  -5   12.58   15.47
  -5 -16   5   -3.28   13.47
  16  -5   5  -25.59   18.17
  -5 -16  -5   -0.79   17.49
  16  -5  -5    7.69   14.95
   5  16   5   -7.57   16.10
 -16   5   5  -30.22   18.72
   5  16   5  -16.02   18.52
  -5 -16  -5   24.49   16.42
  -5 -16  -5   14.55   15.46
   5  16  -5    5.39   13.31
  -5 -16   5   11.48    6.96
  16  -5  -7    2.39   17.74
  -5 -16   7   -1.48   16.92
  -5 -16  -7   37.59   18.05
 -16   5   7   -8.45   16.78
 -16   4   0   51.57   15.33
 -16   4   0   77.04   13.80
   4  16   0   57.52   11.60
   4  16   0   62.41    8.05
  -4 -16   0   55.80   12.38
  16  -4   0   54.47   11.59
  16  -4   0  109.31   14.91
   4  16   0   81.84   13.68
  -4 -16   0   69.24   11.51
  -4 -16   0   62.97   13.52
 -16   4   0   78.31   13.32
 -16   4   2   -0.70   10.80
  -4 -16  -2  -10.76   12.21
   4  16  -2   -1.29    9.08
 -16   4  -2    3.45   12.53
 -16   4  -2    5.17   16.79
  16  -4   2  -20.50   13.02
  -4 -16   2   -0.40   11.39
   4  16   2   -1.27   10.66
  -4 -16  -2   12.02   13.01
  16  -4  -2   -2.32   13.75
  16  -4  -2    1.95   11.02
 -16   4  -2   -1.12   12.25
   4  16   2    1.65   11.92
   4  16   2  -14.33   13.83
 -16   4   2   -3.37   13.58
   4  16  -2  -14.00   12.96
  -4 -16  -2   15.54   12.75
  -4 -16   2   -6.58    8.56
  -4 -16   2   16.21   14.26
  16  -4   4    8.26   14.95
  -4 -16   4   -1.28   15.88
 -16   4  -4   17.79   19.57
 -16   4  -4  -23.84   16.99
  -4 -16   4  -16.00   12.93
  16  -4   4    9.13   14.85
  16  -4  -4   41.05   15.81
  -4 -16   4   -0.33    3.86
  -4 -16  -4    0.70   15.60
  16  -4  -4    6.37   13.31
   4  16   4    7.27   16.29
   4  16   4   -6.80   14.73
   4  16   4   18.75   15.55
  -4 -16  -4   -7.23   12.65
   4  16   4   -1.32   14.74
 -16   4   4    4.15   16.42
 -16   4   4    4.92    3.17
  -4 -16  -4   -6.32   14.16
  -4 -16   4    5.37    3.74
   4  16  -4    0.55   12.95
 -16   4  -4    3.05   11.77
  -4 -16  -6   -2.37   16.29
  16  -4   6  -24.72   18.00
 -16   4  -6   -5.47   22.39
   4  16  -6  -15.63   15.78
  -4 -16   6   -4.92   17.17
 -16   4  -6   16.73   20.45
   4  16   6    6.37   19.35
  -4 -16   6   -7.93   15.83
  16  -4   6  -30.81   19.38
  -4 -16  -6  -20.44   18.92
  16  -4  -6   13.52   16.17
   4  16   6  -11.43   16.61
 -16   4  -6    6.00   11.40
   4  16   6  -30.03   21.03
 -16   4   6  -26.10   19.86
  -4 -16  -6    1.60   16.34
   4  16  -6   -5.52   13.52
 -16   3  -1   34.72   12.35
 -16   3   1   11.48   13.06
  -3 -16   1   38.38    9.59
  -3 -16  -1   10.92   11.51
  16  -3   1   14.72   11.45
   3  16  -1   33.04   10.10
   3  16   1   21.52    9.23
 -16   3  -1   45.90   13.40
  -3 -16  -1    9.79   12.44
  16  -3  -1   21.38   13.22
   3  16   1   21.15   10.90
 -16   3  -1    8.97   16.25
   3  16  -1    4.88   13.17
  16  -3   1   23.89   13.69
 -16   3   1   18.39   12.47
  -3 -16   1   11.07   13.13
   3  16  -1   15.69    3.09
  -3 -16   3    1.21   15.41
  -3 -16   3    9.49   12.15
 -16   3  -3    1.74   14.03
  16  -3   3    2.35   13.87
  -3 -16   3   15.70    7.18
   3  16   3    6.47   12.81
  16  -3  -3   19.11   13.95
  -3 -16  -3   25.03   14.80
  16  -3  -3    2.13   11.37
   3  16   3   15.11   14.37
 -16   3   3   14.89   13.95
  -3 -16  -3    9.11   13.80
   3  16  -3   17.57   13.49
 -16   3   3   11.95    7.09
  -3 -16   5   -0.74    8.01
  16  -3   5   -9.96   16.84
  -3 -16   5  -14.09   17.67
 -16   3  -5  -21.46   12.60
  -3 -16   5  -14.29   13.97
  -3 -16   5    4.27    7.78
  16  -3  -5    6.30   15.16
   3  16   5   -0.78   16.44
  16  -3   5    5.62   17.06
  16  -3  -5   -6.77   13.95
  -3 -16  -5    5.54   17.96
   3  16   5   -4.22   18.61
 -16   3   5    6.81   17.45
   3  16   5   11.12   14.92
 -16   3  -5   20.35   21.29
  -3 -16  -5   26.66   15.18
  -3 -16  -5  -13.96   15.48
   3  16  -5    5.09   13.33
 -16   3  -5   -2.42   18.08
   3  16  -7   -9.25   17.24
 -16   3   7   -6.50   16.10
  -3 -16   7    8.60   17.60
  -3 -16  -7   -1.67   17.37
 -16   2   0   31.20   12.28
  16  -2   0   15.53   10.33
 -16   2   0   -3.25   13.91
 -16   2   0   -4.12   12.96
  -2 -16   0   16.57   10.04
   2  16   0    9.21    7.63
   2  16   0    7.46   10.70
  16  -2   0   27.54   13.86
   2  16   0   13.71   12.38
  -2 -16   0   22.38   13.45
 -16   2   2   17.43   10.84
  -2 -16   2   30.41    8.34
 -16   2  -2   19.40   12.68
 -16   2  -2   -0.73   16.51
   2  16  -2   37.95    9.03
   2  16   2   24.93   11.34
  -2 -16  -2   23.09   13.06
  16  -2  -2   41.05   13.96
 -16   2  -2   62.17   13.16
   2  16   2   16.73   13.96
  -2 -16  -2   14.87   11.60
  16  -2  -2   37.99   10.09
 -16   2   2   58.17   13.62
  -2 -16  -2   22.42   14.19
   2  16  -2    7.66   12.26
   2  16   2   28.68   12.46
  -2 -16   2   34.50   12.56
  16  -2   2   32.56   12.44
  16  -2   2   32.75   12.41
  -2 -16   2   16.21   14.69
 -16   2  -4   -0.53   12.03
  -2 -16   4    0.68   16.73
 -16   2  -4   16.68   18.94
  -2 -16   4   -3.31   13.55
  16  -2   4  -23.72   15.01
   2  16   4  -23.22   15.53
  16  -2  -4   14.95   14.67
  16  -2  -4    9.18   12.22
  -2 -16  -4   10.56   15.11
  -2 -16  -4   10.47   13.50
   2  16   4  -10.29   16.33
   2  16   4    4.82   14.52
 -16   2   4  -14.31   15.68
  -2 -16  -4   -3.40   14.73
   2  16   4  -20.69   14.21
  -2 -16   4   14.13    6.51
   2  16  -4   43.34   14.10
 -16   2  -4    2.05   15.82
  16  -2   6   15.37   17.80
   2  16  -6   38.94   16.92
  -2 -16   6   25.13   17.64
 -16   2  -6   20.81   22.89
 -16   2  -6  -14.66   20.14
  -2 -16   6   -4.24   16.24
   2  16   6   10.97   18.88
  16  -2   6   17.45   19.80
  16  -2  -6    8.95   14.50
  -2 -16  -6   41.90   18.88
   2  16   6   14.53   21.16
 -16   2   6   36.58   18.55
   2  16   6    6.42   16.37
 -16   2  -6    1.06   12.09
  -2 -16  -6   33.01   16.55
   2  16  -6   14.98   14.19
  -1 -16  -1   21.18   11.24
 -16   1  -1   -4.43   11.36
 -16   1   1   26.88   12.57
 -16   1  -1   11.32   15.91
  16  -1   1    3.85   10.42
 -16   1   1    5.47   14.02
  -1 -16   1    3.56    9.17
   1  16   1   -8.33   10.08
  16  -1  -1    3.31    8.94
  -1 -16  -1   13.89   12.38
 -16   1  -1   14.80   13.50
  16  -1  -1    3.55   12.48
   1  16  -1   11.30    9.94
   1  16  -1   -8.18   12.44
  -1 -16  -1    1.14   12.83
  16  -1   1   -1.57   13.27
   1  16  -1    4.04    5.48
 -16   1   1   -3.36   11.93
  -1 -16   1    4.00   14.01
   1  16   1    3.70   10.53
  16  -1   3   13.33   12.68
  -1 -16   3   23.11   15.30
   1  16  -3   -3.85    6.95
 -16   1  -3   30.55   16.41
  16  -1   3   -0.56   13.19
  -1 -16   3  -29.03   13.52
   1  16   3    7.14   13.43
  16  -1  -3  -15.68   14.22
  16  -1  -3   12.65   10.43
  -1 -16  -3   -1.25   15.03
  -1 -16   3   -3.90    5.33
   1  16   3   22.90   13.94
 -16   1   3   -2.79   13.82
  -1 -16  -3   -5.68   13.17
   1  16  -3   -1.70   13.36
 -16   1  -3  -11.16   12.31
 -16   1   3    8.50    5.85
 -16   1  -3   -3.37   13.85
  -1 -16   5    2.38    9.67
  16  -1   5   15.17   16.02
  -1 -16   5   -0.75   17.20
 -16   1  -5   49.80   21.34
 -16   1  -5    6.33   17.49
  -1 -16   5    7.04   14.74
 -16   1  -5   -7.64   12.80
  16  -1   5   -7.04   16.67
   1  16   5   -8.66   17.10
  16  -1   5  -14.07   13.71
  16  -1  -5    6.29   12.11
  -1 -16  -5    3.21   17.95
   1  16   5   -1.70   18.54
 -16   1   5    7.87   17.44
  16  -1  -5   15.13   14.46
  -1 -16  -5  -24.87   15.65
   1  16   5   19.00   14.58
   1  16  -5    3.05   14.18
  -1 -16  -5   -0.72   15.09
   1  16  -7  -19.60   18.59
  -1 -16   7  -15.73   18.14
 -16   1   7    6.35   20.14
  -1 -16  -7   23.27   16.50
   0  16   0   85.80   11.41
 -16   0   0   77.47   12.60
   0 -16   0   86.63   11.85
  16   0   0   62.94   10.17
   0  16   0   78.44    9.96
 -16   0   0   57.22   14.77
  16   0   0   91.59   14.29
   0  16   0   78.96   14.19
   0 -16   2   84.14   15.62
   0 -16  -2   74.36   12.53
 -16   0   2   59.56   11.11
   0  16   2   57.66   12.38
   0 -16   2   59.04   14.14
 -16   0  -2   65.80   17.73
 -16   0  -2   60.03   12.82
  16   0   2   49.91   12.60
 -16   0   2   71.03   14.99
   0  16   2   63.90   12.40
   0 -16   2   50.98    6.94
  16   0  -2   59.60    9.87
   0 -16  -2   64.71   14.59
  16   0  -2   65.52   13.81
   0  16  -2   77.49    9.41
   0  16   2   72.09   14.30
 -16   0  -2   60.04   14.08
 -16   0   2   56.43   13.75
   0 -16  -2   31.27   13.65
   0  16  -2   39.15   13.50
  16   0   2   28.35   13.19
 -16   0  -2   50.98   12.32
   0  16   4   24.39   14.27
   0 -16   4   31.92   17.18
 -16   0  -4   22.53   12.67
 -16   0  -4   17.39   15.71
 -16   0  -4    2.76   18.55
   0 -16   4    7.18   13.81
  16   0   4   -7.18   14.51
  16   0  -4   20.39   13.92
   0  16   4   23.44   14.63
  16   0   4   30.26   14.22
   0 -16  -4  -22.84   15.99
   0  16   4   33.53   17.52
   0  16   4   25.13   14.26
 -16   0   4   30.44   15.24
   0 -16  -4  -10.50   13.21
   0 -16  -4   42.73   14.75
   0 -16   4    5.52    8.28
   0  16  -4    5.50   14.43
  16   0  -4   21.45   10.47
   0  16  -6   19.96   17.37
 -16   0  -6   27.55   22.43
   0 -16   6    6.77   17.33
  16   0  -6   32.64   13.09
   0  16   6   19.25   18.77
  16   0   6   43.66   19.93
   0 -16  -6   -3.58   18.88
  16   0   6   27.08   15.06
   0  16   6   18.51   20.70
 -16   0   6   17.97   15.42
 -16   0   6   31.58   18.43
 -16   0  -6   26.06   12.91
 -16   0  -6   66.37   20.30
   0 -16  -6  -23.63   16.72
   0  16   6    0.79   16.40
  16   0   6   47.86   17.93
   0  16  -6  -19.75   15.71
   0 -16   6   18.88   18.96
  -1  16  -1   97.58   11.00
  16   1  -1  105.52    9.90
  -1  16   1  114.36   13.00
  16   1   1  101.41   11.89
   1 -16  -1   92.84   12.70
 -16  -1  -1   96.77   11.67
   1 -16   1   99.44    9.36
 -16  -1   1  114.63   15.71
  -1  16   1   97.76   12.50
   1 -16  -1  110.50   14.92
 -16  -1  -1   78.90   14.29
  16   1  -1  124.85   14.64
 -16  -1  -1   96.18   12.96
  -1  16   1  132.11   14.87
  -1  16  -1  131.20   15.53
   1 -16  -1   90.13   15.49
  16   1   1  101.34   14.41
  -1  16  -1  112.55    9.22
 -16  -1   1   94.97   13.65
   1 -16   1   82.69   15.59
 -16  -1   1  115.53   14.02
 -16  -1  -3   80.28   13.56
 -16  -1   3   59.34    6.55
   1 -16   3   67.07   17.05
  16   1   3   70.85   13.92
 -16  -1  -3   57.13   14.47
   1 -16   3   78.63   14.66
  16   1   3   63.29   13.77
 -16  -1   3   81.06   16.38
  -1  16  -3   68.12    7.93
  16   1   3   60.46   14.09
  -1  16   3   62.60   14.12
  16   1  -3   75.62    9.63
  16   1  -3  100.25   14.02
 -16  -1   3   49.36    5.77
  -1  16   3   97.29   15.07
   1 -16   3   69.94    8.85
   1 -16  -3   70.79   15.18
 -16  -1   3   66.46   13.77
   1 -16  -3   91.64   15.03
  -1  16  -3   71.02   14.86
  -1  16   5   24.61   15.17
   1 -16   5   19.27   18.07
 -16  -1  -5   -3.13   17.80
 -16  -1  -5  -10.14   21.67
   1 -16   5   16.50   15.93
  16   1  -5   21.54   11.25
  16   1   5   12.31   17.01
  -1  16   5  -19.03   17.39
 -16  -1  -5   20.10   13.07
   1 -16  -5   39.65   17.12
  16   1   5   11.12   14.83
  -1  16   5  -16.33   18.40
  -1  16   5   -5.54   15.22
 -16  -1   5   36.98   16.90
   1 -16  -5   -6.82   14.77
  -1  16  -5   25.65   15.59
   1 -16   5   19.71   10.76
  -1  16  -7  -19.83   19.04
   1 -16   7    3.50   18.22
 -16  -1   7  -21.56   19.82
   1 -16  -7   14.48   16.39
 -16  -2   0   38.03   11.40
  16   2   0   13.27    8.00
   2 -16   0   12.61    8.54
  -2  16   0   27.18   10.11
  -2  16   0   19.64    9.68
  16   2   0    1.89   12.34
  16   2   2   -2.67   12.15
  -2  16  -2   -3.43    7.93
   2 -16   2    2.57   14.74
  -2  16  -2   -1.32    6.98
   2 -16   2    1.57   13.26
  16   2   2    6.14   11.08
  16   2   2   -5.92   13.11
 -16  -2   2  -18.98   14.20
  -2  16   2   26.08   12.32
 -16  -2   2   -7.53   10.23
  16   2  -2    0.39    6.82
  -2  16   2   14.88   12.51
   2 -16  -2   -1.16   14.22
  16   2  -2    1.89   12.00
   2 -16   2    0.73    8.41
  -2  16   2   -5.16   13.31
 -16  -2   2   17.78   12.18
   2 -16  -2   10.39   13.36
  -2  16  -2    1.18   13.51
 -16  -2  -2    2.20   11.89
 -16  -2  -2    6.66   11.68
   2 -16   4   23.08   17.78
  16   2   4  -10.65   14.53
 -16  -2  -4   -8.60   12.94
 -16  -2  -4   -3.95   15.99
   2 -16   4   34.16   14.65
  16   2  -4   -4.32   13.02
  16   2   4   -5.07   14.43
  16   2  -4   13.80    9.27
  -2  16   4   -8.21   14.85
  16   2   4   -6.42   14.11
  -2  16   4   -7.06   13.86
 -16  -2   4   15.84   14.66
   2 -16  -4    3.79   13.88
   2 -16  -4    7.28   15.68
   2 -16   4   -2.21    9.50
 -16  -2   4  -16.46   15.02
  -2  16  -4  -21.45   15.94
  -2  16   4    1.99   13.93
  -2  16   6    7.86   16.64
   2 -16   6    9.58   12.24
  -2  16  -6   24.29   17.87
   2 -16   6   -4.42   19.47
 -16  -2  -6    7.75   21.98
 -16  -2  -6   26.16   19.14
   2 -16   6  -39.90   18.10
  16   2  -6   -6.66   12.38
  16   2   6   31.58   19.86
  -2  16   6  -11.12   18.59
  16   2   6   -7.81   15.41
 -16  -2   6  -27.47   15.11
 -16  -2   6   -0.74   17.59
 -16  -2  -6   -6.01   13.20
   2 -16  -6   17.58   15.68
  -2  16  -6    8.69   17.05
 -16  -3  -1    5.09   11.26
  16   3  -1    6.30    5.15
  16   3   1   12.11    8.78
   3 -16  -1    6.56   10.31
  16   3   1  -12.32   14.14
   3 -16   1    0.58    9.32
 -16  -3  -1    6.10    9.31
 -16  -3   1    3.47   13.75
  -3  16  -1   -1.37    8.89
  -3  16   1    7.55   10.86
  16   3  -1    9.86   12.22
  -3  16   1   12.20   10.84
 -16  -3  -1   30.96   13.22
  -3  16   1   27.96   12.40
  -3  16  -1    6.28   13.29
  -3  16  -1   31.25    8.99
  16   3   1   13.67   12.35
   3 -16  -1   15.17   13.78
 -16  -3   1   14.79   11.03
   3 -16   1   27.13   14.33
   3 -16   3   -7.30   16.56
  16   3   3    6.47   13.22
 -16  -3  -3   -9.16   12.70
 -16  -3   3   -4.44    5.90
   3 -16   3    6.04   14.33
 -16  -3  -3    0.53   13.26
  16   3  -3    5.95    6.65
 -16  -3   3    1.90   14.28
  -3  16   3   22.49   13.98
  16   3   3   11.35   13.72
   3 -16  -3   20.95   14.61
  16   3   3   -1.02   12.20
  -3  16   3    2.97   13.22
 -16  -3   3    0.58    4.53
   3 -16   3   11.49    9.48
 -16  -3   3   10.57   12.78
  16   3  -3   15.95   12.12
  -3  16  -3   11.31    7.20
   3 -16  -3   23.09   13.62
  -3  16  -3  -11.00   14.52
  16   3   5   -6.80   15.43
   3 -16   5  -23.20   18.49
   3 -16   5  -13.19   16.56
  16   3  -5    5.15   10.27
 -16  -3   5    7.55   12.40
  16   3   5  -12.95   16.65
  -3  16   5  -20.17   16.85
 -16  -3  -5    6.63   13.77
  16   3   5   21.53   15.39
 -16  -3  -5   14.65   17.60
  -3  16   5   -4.38   16.18
  -3  16   5    1.33   14.56
 -16  -3   5   25.05   15.37
   3 -16  -5    5.19   14.21
  -3  16  -5  -19.16   16.75
   3 -16   5   -3.67   11.32
 -16  -3   7   -4.07   18.94
  -3  16  -7  -14.75   17.38
 -16  -4   0  -16.42   10.84
  16   4   0    4.33    6.22
   4 -16   0   -8.82   10.11
 -16  -4   0   10.40   12.77
  -4  16   0   -5.35   10.62
  16   4   0   -5.41   12.20
   4 -16   0    4.84   13.72
  -4  16   0    2.89   10.21
 -16  -4  -2   34.64   13.05
  16   4   2   14.63   12.52
   4 -16   2   43.20   16.01
  -4  16  -2   15.68    8.67
 -16  -4  -2   28.91   11.20
  16   4   2   19.57   10.59
  16   4   2   36.15   13.83
  16   4  -2   16.62    3.34
 -16  -4   2   27.62   13.63
  -4  16   2   43.73   13.13
   4 -16  -2   47.55   14.75
  16   4  -2   19.27   11.78
  -4  16  -2   21.54    7.96
   4 -16   2   13.54    9.96
 -16  -4   2   15.79    6.85
  -4  16   2   18.31   12.89
  -4  16   2   24.63   11.97
 -16  -4   2   22.48   11.49
  -4  16  -2   17.58   14.55
   4 -16  -2   21.63   13.68
   4 -16   2   50.92   14.51
   4 -16   4   29.53   18.68
  16   4   4   43.77   14.65
   4 -16   4    4.82   15.49
 -16  -4  -4   25.83   15.32
 -16  -4  -4   25.72   13.06
  -4  16  -4    9.17    3.72
  16   4  -4   34.36   12.73
  -4  16  -4    0.21    3.51
  16   4   4    8.84   14.51
  16   4  -4    8.76    8.57
 -16  -4   4   -3.24   13.97
  -4  16   4   10.67   15.38
  -4  16   4   32.58   14.95
  16   4   4  -18.38   15.13
  -4  16   4    0.62   14.15
 -16  -4   4   25.00   14.10
   4 -16  -4   20.58   14.32
   4 -16   4   39.02   11.07
  -4  16  -4    8.71   16.68
   4 -16   6  -12.67   13.68
  -4  16  -6  -27.32   18.54
  -4  16   6   -4.76   16.35
   4 -16   6   18.88   19.99
 -16  -4  -6   10.72   18.81
   4 -16   6   -9.25   18.08
 -16  -4   6    8.58   14.17
  16   4   6  -15.34   19.30
  -4  16   6  -21.68   19.56
  16   4   6   11.43   16.21
  -4  16   6   28.77   21.91
 -16  -4   6  -23.58   16.77
 -16  -4  -6    6.36   13.87
   4 -16  -6    1.32   14.21
  -4  16  -6   32.45   18.14
 -16  -5   1    5.57   10.75
 -16  -5  -1    4.31    8.71
  -5  16  -1   16.91    9.60
  -5  16   1    0.49   11.29
 -16  -5  -1   -1.81   10.98
  16   5   1   16.03    8.26
   5 -16  -1    7.69   11.37
   5 -16   1    1.76    9.94
  -5  16   1    1.76   12.07
 -16  -5   1   13.05    9.35
 -16  -5   1   17.84   13.31
  16   5  -1   -5.43   11.66
  -5  16   1    1.13   13.22
  -5  16  -1    7.72    9.83
   5 -16  -1   13.12   14.61
  16   5   1    4.24   11.40
   5 -16   3  -13.24   17.51
  16   5   3   24.36   13.24
   5 -16   3    5.82   15.13
 -16  -5   3   10.13    6.83
 -16  -5  -3   18.74   12.99
  16   5  -3   -2.42    4.28
  16   5   3   13.25   12.85
  16   5  -3   17.29   11.63
  -5  16  -3    3.37    7.38
  -5  16   3   -6.25   15.13
 -16  -5   3  -17.39   12.94
  16   5   3    9.97   14.28
  -5  16   3   -1.76   13.73
   5 -16   3  -12.23   11.19
 -16  -5   3    2.71    5.75
 -16  -5   3    0.88   12.08
 -16  -5  -3    6.57   13.56
   5 -16  -3  -27.30   14.28
  -5  16  -3    0.70   15.40
  16   5   5  -29.41   16.62
   5 -16   5  -16.49   20.31
 -16  -5  -5   14.51   17.41
   5 -16   5  -14.76   16.75
  16   5  -5   -8.02   10.02
  -5  16   5   -8.34   17.21
 -16  -5   5  -20.44   12.59
  -5  16   5    5.23   15.37
 -16  -5   5   -8.12   11.58
  16   5   5    8.17   15.79
 -16  -5  -5   -2.53   13.38
  16   5   5   16.02   17.33
  -5  16   5   -9.62   14.08
 -16  -5   5   12.75   15.52
   5 -16  -5   10.89   17.77
   5 -16  -5   -6.16   14.65
   5 -16   5   23.78   12.49
  -5  16  -5   10.42   18.15
 -16  -5  -7    4.82   14.40
  16   5   7  -13.33   17.76
  -5  16  -7  -10.16   18.74
   6 -16   0   21.08   15.97
 -16  -6   0   19.76   10.89
  16   6   0   23.46   14.01
   6 -16   0   13.51   11.00
  16   6   0   11.57    4.94
 -16  -6   0   32.58   11.63
  -6  16   0   25.76   10.24
  -6  16   0    1.64   11.46
  16   6   0   15.75   11.61
  -6  16   0   39.18   13.87
  16   6   2  136.55   14.92
   6 -16   2  127.15   19.34
 -16  -6  -2  138.76   15.14
  -6  16  -2  108.38   12.18
   6 -16   2  131.53   16.78
 -16  -6  -2  126.41   13.51
   6 -16  -2  155.53   14.83
  -6  16   2  133.39   15.51
  16   6   2  128.81   13.32
  -6  16  -2  121.84   11.52
  16   6   2  130.88   16.22
  16   6  -2  107.63   13.77
  -6  16   2  132.09   15.77
 -16  -6   2  107.04   15.90
   6 -16   2  147.84   13.92
 -16  -6   2  122.37   10.44
  -6  16   2  154.73   16.26
  -6  16  -2   95.84   17.01
 -16  -6   2  120.77   13.15
   6 -16  -2  109.52   16.05
   6 -16   4    7.86   18.83
  16   6   4   -0.66   15.06
   6 -16   4   12.43   15.96
  16   6  -4   -6.78    7.13
 -16  -6  -4   -5.11   15.12
  16   6  -4    1.81   11.51
  -6  16  -4    5.60    5.68
  16   6   4    8.94   14.85
 -16  -6  -4  -18.17   13.78
   6 -16  -4  -19.02   16.41
  -6  16   4   -1.49   16.39
  -6  16  -4   -3.44    5.53
 -16  -6   4   -0.61   11.79
  16   6   4  -18.07   16.08
  -6  16   4    1.81   13.42
 -16  -6   4   -8.61   12.61
  -6  16   4   -1.40   14.07
   6 -16   4   -1.77   11.83
   6 -16  -4   -0.60   13.89
  -6  16  -4    6.27   17.39
   6 -16   6   35.28   21.43
 -16  -6  -6   21.31   18.68
   6 -16   6   18.58   18.55
  -6  16   6   -0.81   16.46
  16   6   6   -4.55   19.09
 -16  -6   6  -24.95   14.53
 -16  -6  -6   12.37   18.65
  16   6   6    4.88   16.95
 -16  -6   6    9.62   15.91
  -6  16  -6  -17.44   19.50
   6 -16  -6   23.28   14.64
 -16  -6  -6  -11.50   13.92
  -6  16  -6  -15.44   19.52
   6 -16   6   -6.17   13.80
  -7  16   1   16.49   12.53
 -16  -7   1   16.01   10.47
  -7  16  -1   21.46    9.91
   7 -16  -1   23.81   12.35
  16   7   1    2.91    8.45
   7 -16   1   29.07   11.68
 -16  -7  -1   21.31    8.41
 -16  -7  -1    9.92   12.62
  -7  16   1   14.17   13.45
 -16  -7   1    9.24   10.36
  16   7  -1   -0.77   10.78
 -16  -7   1   23.97   12.72
  -7  16   1    2.90   13.55
  -7  16  -1   16.62   10.94
  16   7   1    5.04   11.76
   7 -16  -1   23.22   14.88
   7 -16   3  -10.81   17.14
  16   7   3    0.58   12.91
   7 -16   3  -10.33   15.91
 -16  -7  -3  -12.34   13.26
  -7  16  -3   -4.76   10.52
 -16  -7  -3   17.44   12.94
  16   7   3    4.15   12.97
  16   7  -3   -2.41   10.98
   7 -16  -3   -2.80   14.91
  -7  16   3   16.41   15.13
  16   7   3  -10.51   14.48
 -16  -7   3   12.84   12.72
  -7  16  -3    3.44    7.63
  -7  16   3   -1.18   13.95
   7 -16   3   -5.66   12.20
 -16  -7   3   -6.52    7.10
 -16  -7   3    4.82   10.92
   7 -16  -3    1.19   13.70
  -7  16  -3   -8.93   16.41
   7 -16   5   34.94   20.46
  16   7   5   18.18   15.93
 -16  -7  -5    3.79   17.27
   7 -16   5   52.50   19.56
  16   7   5   12.43   17.17
   7 -16  -5   -0.85   17.84
  -7  16   5   46.70   18.89
 -16  -7   5    8.40   10.58
 -16  -7   5   22.71   13.12
 -16  -7  -5   31.06   18.04
  16   7   5   35.54   16.93
  -7  16   5    4.35   13.95
 -16  -7   5   30.76   13.74
 -16  -7  -5   38.67   15.02
  -7  16   5   29.93   16.75
   7 -16  -5   -3.03   14.49
   7 -16   5    9.44   13.58
  -7  16  -5   21.32   18.99
 -16  -7  -7   14.76   14.83
  16   7   7   -4.45   18.34
  -7  16  -7    7.28   20.39
   8 -16   0  145.28   18.19
  -8  16   0  148.74   14.37
  16   8   0   96.00    7.18
 -16  -8   0  141.14   12.73
  16   8   0  110.78   16.08
   8 -16   0  154.28   15.14
 -16  -8   0  138.18   14.13
  -8  16   0  170.45   14.79
  16   8   0  107.30   13.25
  -8  16   0  155.81   17.31
 -16  -8   0  138.55   15.39
 -16  -8   2   12.07    9.85
  16   8   2    9.16   12.46
  -8  16   2    6.78   13.54
  -8  16  -2   -4.53   10.72
   8 -16   2    3.93   17.30
  -8  16  -2   19.73    9.03
 -16  -8  -2   24.57   13.56
 -16  -8  -2   19.77   10.84
   8 -16  -2    1.67   12.80
  16   8   2    5.51   10.83
  16   8  -2    5.83   10.62
   8 -16  -2   -2.01   15.27
  16   8   2   -4.07   14.20
  -8  16   2   10.46   13.80
 -16  -8  -2   -9.17   13.87
   8 -16   2   17.57   15.09
   8 -16   2   15.30   12.18
 -16  -8   2   16.06    8.29
 -16  -8   2   -5.24   12.96
  -8  16   2    8.17   13.54
  -8  16  -2   18.58   15.90
   8 -16  -2   -1.86   14.74
 -16  -8   4   -6.96    4.54
   8 -16   4  -23.22   18.98
  16   8   4   26.55   14.61
  -8  16   4   16.07   15.22
   8 -16   4  -17.02   17.14
 -16  -8  -4    8.88   14.78
  16   8  -4    3.24   10.66
  16   8   4    3.92   14.96
  -8  16  -4  -15.34    8.20
   8 -16  -4   22.64   17.17
  16   8  -4   -0.95    5.38
  -8  16   4  -14.65   16.36
 -16  -8  -4   -0.66   13.70
 -16  -8   4  -16.93   11.20
  16   8   4    2.29   16.31
  -8  16   4  -32.63   13.68
  -8  16  -4    1.96    6.66
 -16  -8   4    5.60   11.76
   8 -16   4    1.52   14.16
   8 -16  -4   -7.18   14.37
  -8  16  -4   14.92   19.25
 -16  -8  -6  -15.08   14.92
 -16  -8  -6   38.94   18.99
   8 -16   6   -6.43   22.63
  16   8   6   -5.51   18.89
  -8  16   6   -0.83   16.54
  16   8   6    3.46   17.84
   8 -16   6  -11.13   15.15
  -8  16  -6   43.16   20.03
   9 -16  -1    7.96   15.33
   9 -16   1   35.46   17.11
 -16  -9  -1   19.31    8.30
  16   9  -1    7.36   12.86
   9 -16  -1   12.78   13.11
  -9  16   1    4.62   12.44
  16   9   1   22.30    8.22
  16   9   1    9.26   14.37
   9 -16   1   16.79   12.84
 -16  -9  -1   15.13   12.75
  16   9  -1    9.58   10.39
  -9  16  -1   19.78   11.12
 -16  -9   1   14.04   11.39
  -9  16   1   11.84   13.35
  -9  16   1   -0.60   13.66
  -9  16  -1   17.77   15.45
 -16  -9   1   18.49   12.79
  -9  16  -1   -2.75   11.34
 -16  -9   1    9.62    9.53
  16   9   1   10.24   11.88
   9 -16   3  -12.39   19.04
  16   9   3   17.99   12.94
   9 -16   3    8.78   16.89
  -9  16  -3    7.33   11.67
 -16  -9  -3   10.75   13.23
   9 -16  -3    6.43   13.94
 -16  -9  -3   17.53   13.35
  16   9   3    4.22   13.60
  16   9  -3   -4.95    9.97
   9 -16  -3  -23.91   16.62
  -9  16   3    1.37   15.59
 -16  -9  -3   -7.57   15.51
  16   9   3   25.80   15.93
 -16  -9   3    8.72   12.28
  -9  16   3   30.60   14.56
   9 -16   3   29.59   13.74
 -16  -9   3   -9.04    7.91
 -16  -9   3   18.96    9.71
  -9  16  -3   14.52    8.65
   9 -16  -3   -4.95   15.17
  -9  16  -3  -25.44   17.23
  -9  16   5    1.60   16.49
   9 -16   5  -13.40   21.14
  16   9   5    7.62   15.97
   9 -16   5   -1.73   18.64
 -16  -9  -5    6.83   17.00
  16   9   5  -22.93   17.45
   9 -16  -5    6.10   18.83
  -9  16   5    8.90   18.52
 -16  -9  -5   -0.91   18.60
  -9  16   5    4.26   13.92
  16   9   5   20.04   17.12
 -16  -9   5   10.27   13.11
 -16  -9   5   -7.64   12.69
 -16  -9  -5  -21.04   15.00
   9 -16   5   -7.64   14.70
   9 -16  -5    0.61   14.48
  -9  16  -5  -22.71   20.56
  10 -16   0   -2.19   15.85
 -16 -10   0   -5.87   12.58
 -16 -10   0    2.34    3.32
  10 -16   0   11.18   13.33
 -16 -10   0    3.68   12.05
 -10  16   0    8.29   12.52
  16  10   0   11.80   10.64
 -10  16   0  -10.53   14.85
  16  10   0  -16.22   14.36
  10 -16  -2   24.32   15.38
 -16 -10   2    5.37    9.11
 -10  16  -2    4.80   12.11
  16  10   2    8.57   12.31
 -10  16   2   26.36   13.85
 -16 -10  -2   14.00   11.32
 -16 -10  -2   -3.81   12.94
  10 -16  -2    7.84   13.29
  16  10   2   -0.78   10.83
  16  10  -2    9.86    9.70
  10 -16  -2   26.58   16.13
 -16 -10  -2   17.80   14.36
  10 -16   2   20.17   14.06
 -10  16   2   25.17   14.83
 -16 -10   2   23.20   10.06
 -10  16   2   10.75   13.86
 -16 -10   2   11.06   12.51
  16  10   4    5.36   14.71
  10 -16   4  -16.33   17.61
 -16 -10  -4   31.13   15.32
 -10  16  -4    8.78    9.37
  16  10   4    1.33   16.10
  10 -16  -4   -9.58   17.40
  10 -16   4   32.55   19.59
 -10  16   4    9.60   17.09
 -10  16  -4    3.43    7.85
 -16 -10  -4   26.33   14.81
 -10  16   4   -1.54   15.63
  16  10   4  -22.50   16.49
 -10  16   4   48.29   14.73
 -16 -10   4   25.03   10.04
  10 -16   4   12.01   14.54
  10 -16  -4   26.57   15.14
 -16 -10   4    8.85    7.29
 -10  16  -4   -9.68   20.03
 -10  16  -6    8.72   20.82
 -16 -10  -6    4.58   15.16
 -16 -10  -6  -22.16   19.97
  16  10   6  -15.86   19.74
  16  10   6  -20.99   18.37
  10 -16   6  -37.14   16.35
  16  11   1   -4.37   11.54
  11 -16  -1    3.58   15.81
 -16 -11   1   -5.73   13.10
  11 -16   1    8.09   17.24
 -16 -11  -1    3.11   13.09
 -16 -11  -1    5.98    8.23
 -16 -11   1    3.76    8.94
  16  11  -1   -8.29   13.88
  11 -16  -1    2.96   13.58
  16  11   1   11.96    8.67
  16  11   1   -3.44   14.30
  11 -16   1    3.80   13.73
 -16 -11  -1   -0.62   13.65
  16  11  -1   -9.66    9.58
 -16 -11   1  -15.15   12.11
 -11  16   1   -6.50   13.69
 -11  16   1  -11.91   13.91
 -11  16  -1  -23.28   16.14
 -11  16  -1   -1.56   12.62
  11 -16  -3   41.14   16.40
  11 -16   3   31.85   19.29
  16  11   3   39.18   13.74
  11 -16   3   44.91   17.97
 -11  16  -3   29.70   12.74
 -16 -11  -3   48.75   13.37
  11 -16  -3   53.15   15.67
  16  11  -3   31.92   10.03
  16  11   3   35.97   13.91
  11 -16  -3   46.47   17.62
 -16 -11  -3   57.10   14.54
 -11  16   3   70.08   17.41
 -16 -11  -3   29.15   17.06
  16  11   3   82.02   18.03
  11 -16   3   54.90   15.37
 -11  16   3   45.17   14.42
 -16 -11   3   30.17    8.96
 -16 -11   3   34.46   12.92
 -11  16  -3   60.71   19.38
 -16 -11   3   53.27    9.19
 -11  16  -5    2.89   21.05
  16  11   5   17.01   16.60
  11 -16   5   27.18   20.27
 -16 -11  -5   13.70   17.03
 -11  16   5   30.13   17.29
  16  11   5    0.81   17.49
  11 -16  -5   16.04   19.20
 -11  16   5   23.78   19.60
 -16 -11  -5   11.33   18.42
 -11  16   5   28.90   14.55
  16  11   5    7.03   17.83
  11 -16   5    9.74   15.20
 -16 -11   5    7.77   12.56
 -16 -11  -5    3.72   15.44
  11 -16  -5   40.48   15.10
  11 -16   5  -27.24   22.30
  12 -16   0  -21.31   17.60
 -16 -12   0    8.50   12.81
  12 -16   0   -5.88   15.03
  16  12   0   10.75   14.30
 -16 -12   0    5.69   12.99
 -12  16   0    2.30   13.85
  16  12   0    7.18   10.21
 -12  16   0   -6.93   15.36
 -16 -12   0    1.44    3.67
  12 -16  -2   66.43   17.27
 -16 -12   2   64.63   13.48
 -12  16  -2   66.05   14.25
  16  12   2   50.54   13.01
 -16 -12   2   75.58    9.53
 -16 -12  -2   57.85   11.94
  16  12  -2   53.53   15.33
  12 -16  -2   61.20   14.91
  16  12  -2   62.02   10.47
  16  12   2   56.32   11.79
  12 -16  -2   72.38   17.56
 -12  16   2   84.50   15.97
 -16 -12  -2   76.17   15.90
 -12  16   2   89.06   16.37
  12 -16   2   11.69   14.82
 -16 -12   2   67.66   12.07
 -12  16   2   41.23   14.66
 -12  16  -4   -9.25   20.33
  12 -16  -4   23.90   15.56
  16  12   4    5.43   15.28
  12 -16   4   18.75   20.71
  12 -16   4    2.58   18.03
 -12  16   4    2.43   16.15
  12 -16  -4   -3.91   15.81
 -12  16  -4   15.75   10.43
  16  12   4  -13.44   16.14
  12 -16  -4  -18.00   17.83
 -16 -12  -4    2.58   15.69
 -12  16   4   30.24   18.25
 -12  16   4  -13.60   13.91
  16  12   4  -37.15   17.57
 -16 -12  -4    2.19   15.83
  12 -16   4  -17.85   15.98
 -16 -12   4   -0.31    8.60
 -16 -12   4  -16.33    9.30
 -16 -12   4   -0.53   10.33
  16  12   6  -10.47   20.60
  12 -16   6  -22.88   17.24
  16  13   1   23.23   11.70
  13 -16  -1   19.22   17.06
  13 -16   1    2.61   18.24
  13 -16   1   23.47   15.71
 -16 -13   1   11.81   12.86
 -16 -13  -1   30.17    8.78
 -16 -13  -1   10.97   14.31
  16  13  -1   17.20   14.42
  13 -16  -1   20.99   14.55
  16  13   1    8.53    9.72
  13 -16   1   19.46   15.03
  16  13   1   25.94   15.39
  16  13  -1   18.76    9.52
 -16 -13  -1    9.21   13.81
 -16 -13   1   30.00   12.74
 -13  16   1   19.43   14.69
 -13  16   1   18.62   15.06
 -13  16  -1   26.79   17.78
 -13  16  -1   22.74   13.83
  13 -16  -3   45.46   17.19
 -16 -13   3   65.42   12.79
 -16 -13   3   70.62    8.06
  16  13   3   43.15   14.60
 -16 -13  -3   48.10   14.02
  16  13  -3   50.84    8.60
  13 -16  -3   44.40   16.13
 -13  16  -3   66.31   14.10
  16  13   3   51.62   14.08
  13 -16  -3   49.53   17.69
 -13  16   3   63.09   18.11
 -16 -13  -3   75.57   15.92
 -16 -13  -3   27.11   16.96
  16  13   3   26.84   17.00
  13 -16   3   33.29   16.05
 -13  16   3   33.44   14.74
 -16 -13   3   68.08   11.43
 -13  16  -3   31.01   19.84
 -13  16  -5    5.08   21.92
 -16 -13  -5   22.84   16.21
  13 -16   5   56.53   24.28
  16  13   5   33.85   16.99
 -16 -13  -5    2.32   17.31
  13 -16  -5   13.61   19.34
  16  13   5   -0.82   18.40
 -13  16   5   18.53   14.13
  13 -16   5   -5.01   16.22
  14 -16   0   30.40   19.02
 -16 -14   0    5.32    4.67
 -16 -14   0  -14.36   13.53
  14 -16   0   27.30   15.16
  16  14   0    5.60   14.99
 -16 -14   0   -6.23   13.75
  16  14   0    0.34   10.18
 -14  16   0    5.09   14.25
 -14  16   0   -5.90   16.09
  14 -16  -2   -6.03   17.35
  14 -16   2   47.72   17.88
 -14  16  -2  -14.70   14.51
  16  14   2    3.06   12.93
 -16 -14  -2   -3.31   11.19
  16  14  -2   -7.80   14.90
  14 -16  -2    1.44   15.68
  16  14  -2   28.94    7.87
  16  14   2    7.78   11.71
  14 -16  -2    9.15   17.67
  14 -16   2   54.50   19.66
  14 -16   2   36.57   16.09
 -16 -14  -2   -0.76   15.40
 -14  16   2   35.07   16.45
  16  14   2   29.00   16.11
 -16 -14   2   45.66   13.37
 -14  16   2   13.39   14.77
 -16 -14   2   28.73   12.97
 -14  16  -2    1.70   17.92
 -14  16   4   18.78   17.08
 -14  16  -4    0.98   21.12
  14 -16  -4   11.53   16.51
 -16 -14   4    3.69   10.27
  14 -16   4   26.47   22.55
  16  14   4    3.46   15.58
 -16 -14  -4   21.00   15.37
  14 -16  -4   -7.44   16.75
  16  14   4    6.06   15.56
  14 -16  -4   -4.19   18.48
 -14  16   4   14.16   19.40
 -14  16   4    5.39   14.52
  14 -16   4   33.78   16.52
 -16 -14  -4   10.73   15.53
  14 -16   6   -2.40   18.08
  16  15   1    5.11   11.18
  15 -16  -1  -15.67   18.14
  15 -16   1   31.55   19.90
  15 -16   1  -10.55   16.45
 -16 -15  -1    6.02    9.22
 -16 -15   1   -4.83   13.36
  15 -16  -1  -11.44   16.19
  16  15  -1   -2.77   14.65
 -16 -15  -1   -7.39   13.99
  15 -16   1   22.26   15.57
  16  15  -1    1.77    8.71
  16  15   1   -0.76   14.54
 -16 -15  -1   10.66   14.91
 -16 -15   1    4.84   14.28
 -15  16   1  -23.89   16.35
 -15  16   1    9.92   15.70
 -15  16  -1  -15.53   18.29
 -15  16  -1    1.30   14.34
  15 -16  -3   26.37   17.68
  16  15   3   19.87   14.09
 -15  16  -3   20.26   14.84
 -16 -15   3   29.34   11.89
  15 -16   3   27.58   18.39
 -16 -15  -3   22.34   14.32
  15 -16  -3   42.70   17.01
  16  15   3   26.32   13.67
  15 -16  -3   -8.80   18.17
 -15  16   3   42.31   19.23
 -16 -15  -3    4.29   16.86
  15 -16   3    2.84   17.24
 -16 -15  -3   21.70   14.99
 -15  16   3   43.65   14.90
 -16 -15   3   29.13   12.51
  16  15   5   30.58   17.41
 -16 -15  -5   22.81   17.60
  16  15   5   -9.91   18.29
  15 -16   5   -0.78   17.72
  16 -16   0    3.60   19.03
 -16 -16   0   -7.03    6.15
 -16 -16   0    8.43   13.78
  16 -16   0  -15.71   17.03
  16  16   0    5.15   14.91
 -16 -16   0   -2.05   14.68
  16  16   0   -0.63   10.02
 -16  16   0  -16.71   16.11
 -16  16   0   -2.36   17.40
 -16  16  -2  -13.51   15.30
  16 -16  -2   -1.60   18.23
  16  16   2   17.06   13.00
  16 -16   2   30.53   18.97
 -16 -16  -2    8.71   11.63
 -16 -16   2   -1.17   13.19
  16  16  -2    0.68   15.11
  16 -16  -2    1.55   16.40
  16  16   2   -2.69   12.47
  16 -16  -2   26.20   17.61
  16 -16   2    5.78   16.44
 -16 -16  -2    4.35   15.06
 -16 -16  -2  -12.03   16.01
 -16  16   2  -13.33   16.57
  16  16   2   17.38   17.05
 -16 -16   2    6.98   13.96
 -16  16   2    8.64   15.15
  16 -16   2   24.41   20.95
 -16  16  -2   29.58   18.83
 -16 -16  -4   26.77   16.58
  16 -16  -4   36.95   17.17
  16 -16   4   15.16   22.72
  16  16   4   20.48   15.69
  16 -16   4   48.35   20.74
 -16 -16   4   23.44   10.97
 -16 -16  -4   10.78   15.83
  16 -16  -4   30.78   18.78
  16  16   4    6.81   15.53
 -16  16   4   24.32   20.84
 -16  16   4   34.49   14.48
  16 -16   4   -1.55   17.19
 -16  16   4    6.32   18.32
  16  16   4    7.89   17.19
 -17  16  -1   11.42   15.72
  16  17   1   12.65   11.93
  17 -16  -1   27.02   19.14
  17 -16   1    2.96   19.88
  17 -16   1   -1.59   17.12
 -16 -17  -1    3.29    9.93
 -16 -17   1   10.01   13.79
  17 -16  -1   19.43   17.04
  16  17  -1   28.09   15.40
  16  17  -1   19.48    7.51
  17 -16   1   -4.46   17.04
 -16 -17  -1    9.82   14.67
  16  17   1   15.21   17.12
 -16 -17  -1    6.93   16.55
 -16 -17   1   40.09   14.92
 -17  16   1   -0.76   16.20
 -17  16   1   33.49   17.01
 -17  16  -1   18.96   19.28
  17 -16  -3   -1.53   17.91
  16  17   3    9.84   14.24
 -17  16  -3    0.72   15.98
  17 -16   3   36.98   21.74
  17 -16   3   12.68   18.67
 -16 -17  -3   10.17   14.05
 -17  16  -3   26.35   14.09
  17 -16  -3   11.90   17.60
 -16 -17   3   17.95   12.71
  17 -16  -3    2.47   18.36
  16  17   3    4.50   13.42
  16  17  -3   18.38   13.30
 -16 -17  -3   15.36   17.58
 -17  16   3   23.76   18.98
  17 -16   3   31.18   18.32
 -17  16   3   42.36   15.49
 -16 -17   3   40.03   14.53
 -16 -17  -5  -20.14   17.60
  17 -16   5  -20.41   20.05
  17 -15   0  -13.34   18.52
 -15 -17   0   -5.57    7.86
  17 -15   0   -0.73   16.30
 -15 -17   0    3.17   14.11
  15  17   0   30.47   16.03
 -15 -17   0   30.67   15.39
  15  17   0    3.10    8.47
 -17  15   0   16.40   15.96
 -17  15   0   -1.55   16.72
 -17  15  -2   17.16   18.81
 -17  15  -2    7.69   15.27
  17 -15  -2   11.64   17.28
  17 -15   2   29.55   19.73
  17 -15   2   -1.63   18.20
 -15 -17  -2   -4.10   11.80
  17 -15  -2   52.88   17.19
  15  17  -2   14.51   14.43
 -15 -17   2  -10.10   12.60
  17 -15  -2   -1.54   17.55
  15  17  -2  -14.16   14.21
  17 -15   2    7.41   17.24
 -15 -17  -2   35.73   17.02
  15  17   2   -4.01   12.70
 -17  15   2   20.67   17.55
 -15 -17  -2   15.76   14.20
 -15 -17   2   18.07   13.73
 -17  15   2   29.62   14.95
 -15 -17  -4    0.82   15.67
  17 -15   4    8.48   19.58
  15  17   4    5.58   15.72
 -15 -17  -4    2.74   16.02
 -15 -17   4    5.33    9.94
  17 -15  -4   -7.47   17.47
  15  17   4   -4.87   15.91
 -17  15   4  -15.96   20.16
 -17  15   4   -5.13   14.10
  17 -15   4  -22.34   18.51
 -17  15  -4  -14.08   12.98
 -17  14  -1    2.06   14.66
  14  17   1  -11.40   10.69
  17 -14  -1   18.28   18.24
  17 -14   1   22.65   16.42
 -14 -17   1    3.49    4.79
 -14 -17  -1    0.72   10.89
 -14 -17   1   -0.17    5.57
  17 -14   1  -19.32   19.60
  17 -14  -1   17.01   16.52
 -14 -17   1   17.04   12.73
 -14 -17  -1   16.27   13.94
  14  17  -1   -2.11    5.26
  14  17  -1  -13.12   14.38
  14  17  -1   27.31   14.44
  17 -14   1   24.28   16.09
 -14 -17  -1    5.15   14.78
 -14 -17   1   -1.91   14.02
 -17  14   1    0.72   15.96
 -17  14   1   19.91   15.93
 -17  14  -1    2.44   19.04
  17 -14  -3   32.11   16.91
 -17  14  -3   40.38   16.32
  17 -14   3   68.84   19.70
  17 -14   3   19.22   22.24
  14  17   3   21.38   13.64
 -14 -17  -3   50.46   14.53
  14  17  -3   13.53   13.77
 -17  14  -3   23.23   14.82
  17 -14  -3   60.17   17.87
 -14 -17   3   46.88   11.51
  17 -14  -3   56.35   17.84
  14  17   3   23.81   14.81
  14  17  -3   28.69   13.33
 -17  14   3   47.03   17.73
 -14 -17  -3   30.13   17.10
  17 -14   3   18.09   17.19
 -17  14   3   29.66   14.03
 -14 -17   3   51.75   14.60
 -14 -17  -5  -11.25   18.00
  17 -14  -5   -5.28   18.95
  14  17   5  -16.07   18.63
  17 -14   5   28.45   18.40
  17 -13   0   10.72   17.85
  17 -13   0   -1.32   14.75
 -13 -17   0   -2.01    9.00
  17 -13   0   11.82   15.92
  13  17   0   -9.50   14.61
 -13 -17   0   12.25   12.58
  13  17   0    3.36   14.29
 -13 -17   0   22.11   14.70
 -17  13   0   -4.09   15.26
  13  17   0   -6.80    8.24
 -17  13   0    1.47   17.51
 -17  13  -2   13.85   19.88
  17 -13   2   21.95   16.43
 -17  13  -2   25.08   15.54
  17 -13  -2   26.22   17.13
  17 -13   2   12.56   19.38
  13  17   2   39.30   12.63
 -13 -17   2    8.99    4.97
 -13 -17  -2    4.77   12.18
  17 -13  -2   21.08   16.47
 -13 -17   2   10.67    5.82
  13  17  -2   14.20   13.46
  17 -13  -2   -2.10   15.98
 -13 -17   2   17.09   11.27
  13  17  -2   31.58   13.81
 -13 -17  -2   23.18   15.88
  17 -13   2  -10.72   17.03
 -17  13   2   18.17   16.03
 -13 -17   2   10.50   13.94
 -17  13   2   30.44   14.35
  13  17   2  -15.26   15.78
 -13 -17  -2   35.76   13.96
  13  17   4    9.22   16.24
 -17  13  -4  -22.67   21.99
  17 -13  -4  -19.03   14.66
  17 -13   4    8.87   19.02
 -13 -17  -4   10.15   15.68
 -13 -17  -4    2.75   15.79
  17 -13  -4   16.14   17.10
  13  17   4   -5.68   16.75
 -13 -17   4    2.91    8.57
 -17  13  -4   -9.95   12.84
  13  17  -4   -3.43   12.54
 -13 -17  -4   25.18   18.23
 -17  13   4    8.88   12.69
  17 -13   4   14.81   17.25
 -13 -17   4    7.74   14.69
 -17  12  -1    8.56   17.88
 -17  12  -1    6.59   14.34
  12  17   1    7.94    9.77
 -12 -17   1   -4.95    7.59
  17 -12   1   -0.67   14.85
  17 -12   1   -6.06   18.07
 -12 -17  -1   -5.10   11.33
 -12 -17   1    3.64    8.40
  17 -12  -1  -16.07   15.39
  12  17   1   -2.17   14.99
  12  17  -1    5.52   13.57
  17 -12   1  -20.60   16.36
 -12 -17   1   -8.28   11.86
  17 -12  -1    5.80   17.33
  12  17  -1   17.96   13.82
 -12 -17  -1  -11.23   13.87
 -12 -17   1   38.09   14.60
 -17  12   1  -17.95   15.05
 -12 -17  -1   -7.89   12.61
  12  17   1   -3.27   13.89
 -17  12   1   -7.59   14.84
  17 -12  -3  -10.47   14.29
 -17  12  -3   31.23   15.05
  17 -12   3   -3.98   17.31
 -12 -17   3    4.30    6.29
 -12 -17  -3   11.77   13.95
  12  17  -3    4.72   12.93
 -17  12  -3  -23.96   14.22
  17 -12  -3    6.81   15.71
  12  17   3   20.90   14.74
 -12 -17   3   12.16   10.36
  12  17  -3  -16.95   12.64
  17 -12   3   42.99   16.62
 -17  12   3   -3.00   12.91
 -12 -17   3    2.26   14.92
  17 -12  -5  -16.59   18.69
 -12 -17  -5   -8.82   18.32
  12  17   5  -11.09   19.17
  17 -12   5    1.65   17.74
 -17  11   0   26.82   16.46
  11  17   0    0.42    7.16
  17 -11   0  -18.41   16.87
 -11 -17   0    3.94    9.63
  17 -11   0   -8.01   15.67
  11  17   0  -13.02   14.32
 -11 -17   0   25.13   14.64
 -11 -17   0    9.72   11.98
  17 -11   0   24.84   14.64
  11  17   0   -7.57   13.56
 -17  11   0  -10.42   14.33
 -17  11  -2   -0.84   17.12
  11  17   2  -11.61   14.51
 -11 -17  -2  -12.78   12.91
 -17  11  -2    7.22   14.62
  17 -11  -2   -6.76   15.94
  17 -11   2  -28.80   15.99
 -11 -17   2  -11.08    6.99
  17 -11   2   33.08   18.71
 -17  11  -2   21.19   14.46
 -11 -17   2   22.44    8.84
  17 -11  -2  -31.35   15.40
  11  17  -2   11.66   13.00
  11  17  -2   16.38   12.75
 -11 -17   2    5.88   10.64
 -11 -17  -2    1.48   14.79
  17 -11   2    0.69   15.62
 -11 -17   2   -0.58   13.84
 -17  11   2  -18.00   13.28
 -11 -17  -2   -6.46   13.29
 -11 -17   4    7.45   15.16
 -17  11  -4   53.75   22.18
  11  17   4    6.42   17.15
  17 -11  -4   14.39   12.54
  17 -11   4    5.89   19.47
  17 -11  -4   22.91   16.98
 -11 -17  -4    1.39   15.86
 -11 -17  -4   39.95   16.13
  17 -11  -4   13.56   16.39
  11  17   4   35.31   16.95
 -17  11  -4   17.01   13.29
 -17  11   4   11.14   18.55
 -11 -17   4   45.75    9.59
  11  17  -4   -1.50   12.60
 -11 -17  -4   17.08   17.38
 -17  11   4   13.31   11.49
 -11 -17   4   10.96    8.13
  17 -11   4   19.79   16.62
  17 -11  -6   10.82   19.81
 -17  10  -1   14.54   13.79
 -10 -17  -1    5.15   12.39
 -17  10  -1    4.47   17.11
  10  17   1    4.88   12.94
  17 -10  -1   13.25   15.86
  17 -10   1   -4.92   14.23
  17 -10   1   -3.27   17.13
  10  17   1    4.12    9.03
 -10 -17  -1   16.37   11.72
 -10 -17   1    9.45    9.49
  10  17   1   20.03   14.70
  10  17  -1    5.36   13.40
  17 -10   1   -0.66   14.83
 -10 -17  -1    7.44   14.53
 -17  10   1   -3.28   13.81
 -10 -17   1   36.29   13.80
 -10 -17   1   26.15   11.24
 -17  10   1   23.65   15.25
 -17  10  -3   38.38   20.34
  17 -10  -3    6.53   13.31
 -17  10  -3    2.03   14.53
  17 -10   3   47.73   16.64
 -10 -17   3   31.30    8.95
 -10 -17  -3   15.59   15.03
  17 -10  -3   28.48   16.70
  10  17  -3    8.28   11.63
 -17  10  -3   34.61   13.95
  17 -10  -3   16.72   14.39
  10  17   3   52.02   15.31
  10  17  -3   29.92   13.15
 -17  10   3   50.92   17.57
 -10 -17   3   37.29    9.66
 -17  10   3  -11.70   11.84
  17 -10   3   65.81   16.94
 -10 -17   3   17.17   15.03
 -10 -17   5   28.66   16.27
 -17  10  -5   27.28   22.66
  10  17   5   38.28   17.71
 -17  10  -5   -5.43   19.84
  17 -10   5   27.13   18.96
  17 -10  -5  -23.28   17.43
 -10 -17  -5  -21.73   18.34
  17 -10  -5  -11.75   17.37
  10  17   5    1.71   18.95
 -17  10   5   23.88   20.26
 -10 -17  -5   23.09   18.58
 -10 -17  -5   10.38   16.59
  17 -10   5   42.27   18.06
 -17  10  -5    4.43   11.90
   9  17   0   22.21   12.70
 -17   9   0   24.70   15.73
  -9 -17   0   -2.53   11.30
   9  17   0    6.95    6.33
  17  -9   0  -15.26   13.84
  17  -9   0  -12.88   15.70
   9  17   0   -1.74    6.38
  -9 -17   0  -13.31   10.33
   9  17   0   10.74   14.00
  -9 -17   0   -3.11   13.48
 -17   9   0   -8.03   13.45
 -17   9  -2  -12.30   17.71
 -17   9  -2   -8.24   13.60
  17  -9  -2    5.50   13.54
  -9 -17   2    0.31    9.35
  17  -9   2   -1.96   14.78
  -9 -17  -2   21.43   12.72
 -17   9  -2   -3.68   13.87
  -9 -17  -2  -13.92   12.97
  17  -9  -2  -12.49   15.48
  17  -9  -2   25.64   14.01
   9  17   2   11.69   14.77
   9  17  -2    8.07   11.34
   9  17  -2    6.71   12.88
   9  17   2  -16.86   13.68
  17  -9   2   -2.00   14.97
  -9 -17   2   12.71   13.65
 -17   9   2   -6.73   12.59
  -9 -17   2    2.46   10.05
  -9 -17   4  -14.34   15.49
  -9 -17   4    4.45    7.13
 -17   9  -4   30.97   20.89
 -17   9  -4  -26.70   18.45
  17  -9  -4    0.37   10.40
   9  17   4  -31.53   16.48
  17  -9   4   15.20   18.11
  -9 -17   4    7.29   10.97
  17  -9  -4   12.50   16.71
  -9 -17  -4  -19.01   17.21
  17  -9  -4   23.34   16.48
   9  17   4   18.96   16.59
 -17   9   4    1.63   17.44
  -9 -17  -4   -0.73   14.24
 -17   9  -4  -16.55   12.84
   9  17  -4   13.72   12.73
  -9 -17  -4  -14.58   15.61
 -17   9   4    5.73   10.17
  17  -9   4   33.70   17.07
 -17   9   6   -2.56   17.28
  17  -9  -6    4.28   19.01
 -17   8   1    2.20   14.33
 -17   8  -1    1.82   13.41
 -17   8  -1  -12.95   17.19
  -8 -17   1    1.77   10.40
   8  17   1    1.15   12.31
  17  -8   1    5.66   13.69
  17  -8  -1    3.03   13.90
  -8 -17  -1    9.84   12.02
  -8 -17  -1   -0.44   12.09
  -8 -17   1    7.20   10.00
   8  17   1    6.66   14.14
   8  17  -1   -2.33   13.20
  17  -8   1   12.68   14.64
  -8 -17  -1  -22.82   14.27
  -8 -17   1   26.81   13.47
   8  17  -1    9.87   11.34
   8  17   3   -5.39   15.38
 -17   8  -3   18.07   19.32
  -8 -17   3    5.41    8.56
  17  -8  -3   -1.27   11.61
  -8 -17   3    1.82   10.25
  17  -8   3    7.72   16.25
 -17   8  -3    5.30   14.05
  -8 -17  -3   -4.30   14.32
  17  -8  -3  -10.00   15.18
  17  -8  -3   14.06   13.88
   8  17  -3   -8.77   10.76
   8  17   3   -7.51   14.84
 -17   8  -3   18.50   13.39
 -17   8   3   15.85   16.22
   8  17  -3  -23.81   13.63
  -8 -17  -3   13.39   14.74
 -17   8   3   -1.84   10.16
  17  -8   3   -9.63   14.73
  -8 -17   3    5.87   14.92
  17  -8   5   19.31   17.57
 -17   8  -5   -3.56   11.85
  -8 -17   5  -20.29   16.15
 -17   8  -5  -25.93   22.34
  -8 -17  -5   12.44   15.70
 -17   8  -5   -6.13   19.98
   8  17   5    2.47   16.77
  17  -8   5   14.94   18.94
  17  -8  -5   42.01   17.27
  -8 -17   5   -4.38   12.58
  -8 -17  -5   15.33   18.20
  17  -8  -5   -5.88   17.08
   8  17   5    2.59   19.41
 -17   8   5   15.82   19.05
  -8 -17  -5   16.02   17.55
   8  17  -5   12.73   13.13
 -17   7   0    4.39   15.76
   7  17   0   -9.63   12.31
  17  -7   0   -8.81   12.63
  -7 -17   0    1.93   11.11
   7  17   0    0.37    6.23
  -7 -17   0   -1.96   11.11
   7  17   0   10.89   12.83
  -7 -17   0   10.33   13.53
 -17   7  -2   27.19   18.07
 -17   7  -2  -10.42   13.33
  -7 -17   2   10.54    9.33
   7  17   2   22.73   12.81
  -7 -17  -2    0.53   13.19
 -17   7  -2  -14.49   13.58
  17  -7  -2   -6.59   14.57
  -7 -17  -2   -7.11   13.14
  17  -7  -2   18.18   13.22
  17  -7   2    2.44   14.32
   7  17  -2   14.11   13.40
 -17   7   2   -7.74   14.22
  17  -7  -2  -11.62   12.61
  17  -7   2   16.07   14.24
  -7 -17   2   12.25   10.40
  -7 -17   2  -13.40   14.04
 -17   7   2  -19.47   12.11
  -7 -17  -4   21.95   14.44
  -7 -17   4   12.43   15.79
 -17   7  -4   19.86   21.53
 -17   7  -4  -18.92   17.26
  17  -7   4   41.27   17.77
  -7 -17   4    9.20   11.88
   7  17   4    2.23   14.82
  17  -7  -4    1.49   16.26
  -7 -17  -4    1.42   16.19
  17  -7  -4   -6.22   15.24
   7  17   4   16.28   17.35
  -7 -17   4   19.96    7.66
 -17   7   4   31.83   17.88
  -7 -17  -4    7.00   15.56
 -17   7   4    9.43    7.89
   7  17  -4   13.82   13.10
  17  -7   4   -3.67   15.99
  -7 -17   6    5.98   14.57
  17  -7  -6   11.09   17.53
  -7 -17  -6   28.28   17.89
 -17   6   1   -7.30   14.29
   6  17  -1   15.77   10.61
 -17   6  -1   -0.70   16.22
  17  -6   1   21.77   13.19
   6  17   1   31.03    9.20
   6  17   1   25.56   12.75
 -17   6  -1   16.83   13.59
  -6 -17   1   14.65   10.59
  -6 -17  -1   25.26   12.70
  -6 -17  -1   20.02   11.68
  17  -6  -1   -1.22   14.59
   6  17   1   12.12   13.68
   6  17  -1   10.39   12.46
  -6 -17  -1   11.43   13.37
 -17   6   1   29.37   13.65
  -6 -17   1   25.09   13.47
 -17   6  -3   41.76   20.14
 -17   6  -3    4.49   15.47
  -6 -17   3   35.42   11.91
 -17   6  -3   23.96   14.68
  -6 -17  -3   35.46   14.85
  17  -6  -3   25.78   14.46
  17  -6  -3   11.25   13.17
  -6 -17   3   27.46    8.73
   6  17  -3   30.30   10.28
   6  17   3   25.72   15.74
 -17   6  -3   39.16   13.52
 -17   6   3   27.22   15.50
  -6 -17  -3   39.30   14.89
   6  17  -3   44.59   13.70
 -17   6   3   51.82   10.06
  17  -6   3   30.28   15.73
  17  -6   3   25.13   15.15
  -6 -17   3   42.35   15.08
  17  -6   5   52.82   17.62
 -17   6  -5   -3.68   12.27
  -6 -17   5   40.64   17.40
 -17   6  -5   13.92   21.49
 -17   6  -5   37.39   19.44
  17  -6   5   22.19   18.02
  -6 -17   5   45.58   13.66
  17  -6  -5   31.35   16.66
  -6 -17  -5   31.56   18.25
   6  17   5   36.83   17.44
  17  -6  -5   30.62   16.28
   6  17   5   65.66   19.55
  -6 -17  -5   40.36   16.29
 -17   6   5   30.23   19.30
  -6 -17  -5   18.67   16.86
   6  17  -5   52.72   14.16
 -17   6   7  -24.59   17.65
 -17   5   0   31.44   15.32
  17  -5   0    2.18   11.77
   5  17   0   18.10   11.52
   5  17   0    6.58    7.09
  -5 -17   0   -3.83   11.60
  -5 -17   0    3.23   10.41
  17  -5   0   -1.78   13.85
   5  17   0   -5.32   13.40
  -5 -17   0   14.30   13.49
 -17   5   0  -11.19   12.80
   5  17  -2    0.73    9.70
 -17   5  -2   -8.65   17.83
  -5 -17   2   23.79   11.49
  17  -5   2   59.42   13.94
   5  17   2   13.41   11.36
  -5 -17  -2    4.88   13.66
   5  17   2   27.14   12.50
  17  -5  -2    7.52   13.95
 -17   5  -2   17.89   13.31
  17  -5  -2   11.59   11.83
  -5 -17   2   -2.10    9.23
 -17   5  -2    0.59   12.53
   5  17  -2   32.52   13.62
 -17   5   2   10.27   14.29
  -5 -17  -2    5.99   14.19
  -5 -17  -2   18.40   12.39
  -5 -17   2    1.19   14.04
 -17   5   2    1.98   11.57
  17  -5   4   23.83   16.33
  -5 -17   4  -13.13   16.51
 -17   5  -4   21.56   19.72
 -17   5  -4  -13.12   16.78
  -5 -17   4   -7.80    6.13
  -5 -17   4    9.39   12.13
  17  -5   4  -17.67   16.30
   5  17   4   -5.39   14.88
  -5 -17  -4    0.72   16.51
  17  -5  -4   17.67   14.08
  -5 -17  -4   -3.47   14.03
   5  17   4   -5.05   15.04
   5  17   4   17.95   16.98
 -17   5   4  -25.75   16.69
 -17   5   4    8.91    5.25
  -5 -17  -4   11.20   15.70
   5  17  -4   18.94   14.23
  17  -5  -4    4.94   15.48
 -17   5  -4   -4.28   12.61
   5  17   6   15.77   19.42
  -5 -17   6  -11.00   15.28
  17  -5  -6   10.76   16.87
   5  17   6   -2.58   17.84
 -17   5   6   20.03   19.94
  -5 -17  -6   -3.29   16.53
  -5 -17  -6   38.10   17.76
  -4 -17  -1    8.16   11.17
 -17   4   1    9.51   13.63
 -17   4  -1   -2.05   15.87
   4  17  -1   12.75   10.43
   4  17   1   27.05    9.24
 -17   4  -1   21.01   14.02
  17  -4   1   23.68   12.50
  -4 -17  -1   19.31   12.56
   4  17   1   23.84   11.86
  17  -4  -1   31.94   14.44
   4  17   1   22.73   13.52
   4  17  -1    1.15   12.63
  17  -4   1   -5.31   13.61
 -17   4   1    2.22   12.87
  -4 -17   1    7.08   13.50
  -4 -17   1   23.05   10.71
  -4 -17   3   23.90   15.34
 -17   4  -3   12.32   17.21
  17  -4  -3  -13.59   14.94
  -4 -17   3   30.86   12.82
  17  -4   3  -16.83   14.69
 -17   4  -3   14.59   13.39
   4  17   3   32.03   12.95
  -4 -17  -3   13.26   14.64
  17  -4  -3   21.22   12.40
  -4 -17   3   29.59    8.57
   4  17   3   26.76   15.28
 -17   4   3    3.85   15.01
 -17   4  -3   42.06   15.00
 -17   4  -3   14.59   13.50
  -4 -17  -3   16.67   14.74
   4  17  -3  -10.42   13.67
 -17   4   3   15.62    8.91
  17  -4   5   31.79   17.23
  -4 -17   5    7.96   17.55
 -17   4  -5    7.48   22.62
  -4 -17  -5   34.59   16.15
 -17   4  -5   31.67   19.08
  -4 -17   5   45.22   14.54
  17  -4  -5   31.94   16.46
   4  17   5    9.58   17.12
  17  -4   5   24.11   18.32
  -4 -17  -5   40.67   18.59
  17  -4  -5    7.87   14.72
   4  17   5   22.71   16.74
   4  17   5   21.74   19.42
 -17   4  -5   13.09   12.94
 -17   4   5   -6.40   18.48
  -4 -17  -5   31.96   16.79
   4  17  -5   10.52   14.07
  -4 -17   7   -8.43   17.22
 -17   4   7  -19.33   17.07
 -17   3   0   11.67   12.07
 -17   3   0   -8.19   14.79
  17  -3   0    5.44   11.23
  -3 -17   0    0.89   10.78
 -17   3   0   -5.69   13.56
   3  17   0   31.22   11.41
   3  17   0   -3.45    7.38
  17  -3   0   31.18   13.91
   3  17   0  -16.48   13.50
  -3 -17   0  -13.15   14.09
   3  17  -2   -1.69    9.09
 -17   3   2   -9.30   11.36
 -17   3  -2   -0.98   12.73
  -3 -17   2   12.94   12.05
  17  -3   2  -14.10   13.12
   3  17   2    3.08   11.56
  -3 -17  -2   -6.75   11.66
 -17   3  -2   19.30   16.71
  -3 -17  -2   -3.90   13.88
  17  -3  -2   14.86   13.88
  17  -3  -2   18.62   10.67
 -17   3  -2   -6.55   12.88
  -3 -17   2    2.31    8.51
   3  17   2  -21.33   14.40
   3  17   2   -0.57   12.20
 -17   3   2   44.97   14.11
   3  17  -2    4.05   13.05
  -3 -17  -2    5.19   13.86
  17  -3   2   16.30   13.81
  -3 -17   2   -4.27   14.50
 -17   3  -4    1.10   12.43
  17  -3   4    1.43   15.22
  -3 -17   4    2.79   16.32
  -3 -17  -4   30.13   14.40
 -17   3  -4   21.33   17.02
  -3 -17   4  -23.57   13.64
  17  -3   4   19.78   15.56
   3  17   4   14.24   14.83
  -3 -17   4   14.19    4.00
   3  17  -4    4.91    5.09
  17  -3  -4    2.00   15.09
  -3 -17  -4   11.61   16.17
  17  -3  -4    6.54   13.19
   3  17   4   19.68   17.80
   3  17   4   -0.74   15.65
 -17   3   4   36.06   16.88
  -3 -17   4    4.75    4.02
  -3 -17  -4    6.53   15.60
   3  17   4   33.74   15.50
   3  17  -4    1.78   13.55
  -3 -17   6   12.36   18.33
  -3 -17   6    3.48   15.90
   3  17   6   17.72   18.55
  17  -3   6   21.67   19.77
  17  -3  -6  -19.64   15.03
 -17   3  -6    4.95   12.50
   3  17   6   26.94   17.46
 -17   3   6   -5.23   19.41
  -3 -17  -6   -4.90   16.36
  -3 -17  -6   12.20   17.19
   3  17  -6   -1.80   14.62
 -17   2  -1  184.21   16.79
 -17   2   1  202.74   17.40
  17  -2  -1  164.58   14.11
  17  -2   1  182.12   15.81
   2  17   1  216.60   14.75
   2  17  -1  177.19   10.74
 -17   2  -1  213.04   18.28
  -2 -17  -1  198.03   17.59
  17  -2  -1  202.63   17.96
  -2 -17  -1  182.02   15.91
 -17   2  -1  195.74   19.47
   2  17   1  187.72   16.29
   2  17  -1  185.81   17.03
   2  17  -1  218.29   15.29
  17  -2   1  179.74   17.81
  -2 -17   1  191.52   15.06
 -17   2   1  166.61   17.23
  -2 -17   1  189.37   18.64
  -2 -17   3   19.79   16.22
 -17   2  -3    2.33   14.21
 -17   2  -3    3.47   17.64
  -2 -17   3    2.60   13.27
  17  -2   3  -12.96   13.82
   2  17   3  -13.47   12.77
  17  -2  -3    7.32   13.78
  -2 -17  -3   -7.74   14.53
  17  -2  -3   -2.83   11.24
  -2 -17   3   -0.97    2.56
   2  17   3   -8.87   13.77
 -17   2   3   -3.61   13.78
  -2 -17  -3   -6.76   14.07
   2  17  -3  -14.22   13.72
 -17   2   3   11.41    7.02
   2  17  -3   11.69    7.71
  17  -2   5   23.75   17.28
  -2 -17   5   52.94   18.27
 -17   2  -5   56.25   22.19
 -17   2  -5   20.99   13.03
  -2 -17   5   38.11   15.19
  17  -2  -5   37.14   16.09
  17  -2   5   25.88   17.88
   2  17   5   58.69   17.86
  17  -2  -5   25.59   13.55
  -2 -17  -5   21.26   17.56
   2  17   5   40.22   19.08
 -17   2   5   14.40   18.72
   2  17   5   -6.13   16.39
  -2 -17  -5   11.35   16.86
   2  17  -5   58.38   14.79
  -2 -17   5   34.90    8.71
 -17   2  -5   33.47   18.76
  -2 -17  -5   11.97   15.88
  -2 -17   7  -15.49   18.01
   2  17  -7    1.60   18.17
  -2 -17  -7   37.43   17.39
 -17   1   0    7.59   11.53
 -17   1   0  -18.01   13.79
 -17   1   0   -3.99   14.34
  17  -1   0   -3.05    9.80
  -1 -17   0    2.65   10.81
   1  17   0   -2.02    8.29
  17  -1   0   -4.88   13.12
   1  17   0    2.91   12.70
   1  17   0   -2.16   10.74
  -1 -17   0    7.24   13.91
 -17   1  -2  -25.20   12.33
 -17   1   2    9.01   10.86
 -17   1  -2   -2.31   12.44
  -1 -17   2   -2.44   12.09
 -17   1  -2   -6.86   16.56
  17  -1   2    9.52   11.85
  -1 -17   2   -6.66    4.07
  -1 -17  -2   -0.56   12.27
   1  17   2   19.65   11.92
   1  17  -2    3.86    9.06
  -1 -17  -2   -6.92   13.73
  17  -1  -2  -16.99    9.77
  17  -1  -2   14.97   13.72
 -17   1  -2    4.82   13.27
   1  17   2    4.99   12.90
 -17   1   2    8.51   13.14
   1  17  -2    2.35   13.34
  -1 -17  -2  -10.76   13.92
  17  -1   2   15.22   13.30
   1  17   2    3.87   12.36
  -1 -17   2  -14.55   15.02
 -17   1  -4   27.40   12.97
  -1 -17   4    8.87   17.72
  -1 -17   4   -9.57   14.13
  17  -1   4   -8.83   15.23
   1  17   4  -19.82   14.72
  17  -1  -4  -14.43   14.56
  17  -1  -4   -1.26   11.31
  -1 -17  -4    7.35   16.20
   1  17  -4   -3.66    3.47
 -17   1  -4   -1.38   16.18
   1  17   4   39.02   15.31
 -17   1   4   -2.61   15.58
  -1 -17   4    2.67    7.24
  -1 -17  -4   -9.56   13.72
  -1 -17  -4  -33.77   15.14
   1  17  -4   27.85   14.12
   1  17   4    1.38   13.97
  17  -1   6   50.11   15.44
  -1 -17   6   12.43   18.64
 -17   1  -6   54.98   24.12
 -17   1  -6  -13.01   19.55
  -1 -17   6   56.51   17.12
  17  -1  -6  -19.80   13.72
   1  17   6   47.57   19.84
  17  -1   6   11.17   19.47
 -17   1  -6   -1.16   12.88
 -17   1   6   38.13   18.57
   1  17   6   -4.14   16.72
  -1 -17  -6    5.51   15.65
   1  17  -6  -16.30   14.83
  17   0  -1   57.39    9.36
   0  17   1   84.12   12.19
 -17   0  -1   68.26   13.29
 -17   0   1   55.37   12.93
   0 -17   1   43.31   10.60
   0 -17  -1   51.91   12.14
  17   0   1   52.66   11.23
   0 -17   1   71.19    8.09
 -17   0   1   39.08   14.09
 -17   0  -1   61.32   16.31
   0  17   1   62.62   11.55
   0 -17  -1   79.58   14.94
 -17   0  -1   60.03   13.87
  17   0  -1   47.25   14.13
   0  17  -1   64.99   14.54
   0  17  -1   60.63   10.43
  17   0   1   73.85   13.57
   0 -17  -1   67.76   14.12
   0  17  -1   58.66    7.52
 -17   0   1   34.72   12.41
   0 -17   1   70.66   15.87
  17   0   3   10.70   13.26
   0 -17   3   16.75   16.36
 -17   0  -3    8.47   13.44
   0 -17   3   11.87   13.25
 -17   0  -3   36.99   18.42
  17   0   3   14.47   13.64
   0  17   3   45.36   14.31
  17   0  -3   19.87    9.92
  17   0  -3   10.30   13.94
   0 -17  -3   28.98   15.03
 -17   0   3   11.44    5.38
   0 -17   3   10.91    6.93
   0  17   3    7.87   14.14
   0  17  -3   20.22    7.79
 -17   0   3   18.54   13.93
   0 -17  -3   20.36   14.08
   0  17  -3    4.91   13.92
 -17   0  -3   27.57   13.15
 -17   0   3   13.93    6.44
 -17   0  -5   46.46   22.09
   0 -17   5   41.67   18.97
 -17   0  -5   45.78   19.00
   0 -17   5   83.53   16.78
  17   0  -5   52.66   15.57
 -17   0  -5   48.38   13.84
  17   0   5   67.72   18.54
  17   0  -5   12.33   12.14
  17   0   5   48.45   15.69
   0  17   5   55.84   18.00
   0 -17  -5   39.87   17.81
   0  17   5   37.91   19.61
   0  17   5   30.39   16.94
 -17   0   5   23.59   17.45
   0 -17  -5   55.50   16.51
   0  17  -5   42.48   16.53
   0  17   5   73.33   16.49
   0 -17   5   47.73   10.18
   0 -17   7   10.37   18.38
 -17   0   7    3.62   20.39
   0 -17  -7  -10.58   16.91
 -17  -1   0    1.93   11.86
 -17  -1   0    4.50   13.81
  17   1   0    4.48    8.66
   1 -17   0    1.17    8.54
  -1  17   0   -1.26   10.13
  -1  17   0    0.59    9.13
  17   1   0   -1.04   13.19
   1 -17   2   67.50   16.07
 -17  -1   2   31.83   11.25
   1 -17   2   55.09   14.25
  -1  17  -2   38.06    6.96
  -1  17   2   41.32   12.60
 -17  -1  -2   19.77   12.55
  17   1   2   31.99   11.71
 -17  -1   2   24.60   14.91
  -1  17   2   38.23   12.88
  17   1  -2   42.38    8.84
   1 -17   2   34.29    7.93
   1 -17  -2   55.20   14.93
 -17  -1  -2   33.52   12.13
  17   1  -2   25.50   13.50
  -1  17   2   70.58   14.80
  -1  17  -2   39.35    9.26
 -17  -1   2   37.02   13.04
  -1  17  -2   26.65   13.65
   1 -17  -2   43.38   14.66
   1 -17  -2   51.69   12.01
  17   1   2   46.87   13.42
  17   1   4    4.89   15.43
  -1  17   4   20.63   14.77
   1 -17   4   21.20   17.85
 -17  -1  -4  -17.20   13.19
   1 -17   4  -23.27   14.92
  17   1   4   29.47   14.96
  17   1  -4    4.11   13.92
  17   1  -4    6.02    9.72
  17   1   4   -7.22   14.07
  -1  17   4    2.09   15.70
   1 -17  -4   19.44   17.18
 -17  -1  -4   23.69   15.85
  -1  17   4   -1.37   15.08
  -1  17  -4    3.67    3.15
 -17  -1   4    0.61   14.84
   1 -17   4   -8.58    9.09
   1 -17  -4  -31.94   15.29
  -1  17  -4  -14.14   15.38
   1 -17   6   -0.89   19.10
 -17  -1  -6   30.98   23.38
 -17  -1  -6   28.61   20.09
   1 -17   6   23.79   17.61
  17   1   6   -6.44   19.73
  -1  17   6   30.00   19.75
  17   1   6   17.19   15.91
 -17  -1   6   36.09   18.63
 -17  -1  -6   -6.14   13.55
   1 -17  -6   27.88   15.78
  -1  17   6   -4.09   17.22
  -1  17  -6   -2.15   16.68
  -2  17  -1    8.74    9.46
  17   2  -1   14.05    7.11
 -17  -2   1    6.53   12.65
  17   2   1    4.56    9.44
  -2  17   1    3.41   11.01
   2 -17   1   14.37    8.32
 -17  -2   1    1.25   13.71
   2 -17  -1   -3.44   13.98
  -2  17   1   10.62   10.66
 -17  -2  -1    6.95    9.55
  17   2  -1    1.49   12.78
 -17  -2  -1   -0.61   13.06
  -2  17   1    6.51   13.64
 -17  -2  -1   -4.47   11.95
  -2  17  -1   13.73   12.46
  17   2   1   21.73   13.01
  -2  17  -1   13.95    8.24
   2 -17  -1   -8.60   13.37
 -17  -2   1    6.08   11.93
   2 -17   1   -3.87   15.11
 -17  -2  -3    8.91   12.60
  17   2   3   41.60   14.32
 -17  -2   3   17.12    6.62
   2 -17   3   -8.91   17.51
  17   2   3    5.30   13.05
 -17  -2  -3    4.94   13.78
   2 -17   3    5.47   14.36
  17   2  -3   11.93    7.81
 -17  -2   3   20.74   15.99
  17   2   3   10.39   13.78
  -2  17   3   23.37   14.25
  17   2  -3   -4.80   13.29
   2 -17  -3   16.20   15.62
  -2  17  -3   11.33    7.41
 -17  -2   3   20.34    5.39
   2 -17   3   -6.21    9.08
  -2  17   3   22.24   14.05
 -17  -2   3    7.34   13.16
   2 -17  -3   21.67   13.88
  -2  17  -3    9.14   15.00
 -17  -2  -5   40.55   18.18
  -2  17   5   92.81   17.65
  17   2   5   22.63   16.77
   2 -17   5   51.02   19.84
 -17  -2  -5   44.32   22.00
   2 -17   5   57.87   17.23
  17   2  -5   52.84   14.60
  17   2  -5   40.42   11.14
 -17  -2   5   55.53   16.53
  17   2   5   50.43   17.55
  -2  17   5   41.11   18.38
 -17  -2  -5   37.01   14.04
   2 -17  -5   19.39   18.88
  17   2   5   56.07   16.93
  -2  17   5   42.09   16.34
 -17  -2   5   26.78   16.66
   2 -17  -5   60.17   15.60
  -2  17  -5   45.40   17.15
   2 -17   5   40.57   11.52
 -17  -2   7   36.68   20.01
 -17  -3   0   -5.98   11.42
  17   3   0    1.52    7.27
   3 -17   0   -4.40    9.87
  -3  17   0    0.43   10.35
  -3  17   0    4.49   10.17
  17   3   0   -3.46   12.43
  17   3   2  145.37   15.58
   3 -17   2  102.73   18.22
  -3  17  -2  118.83   10.51
  17   3  -2  111.75    8.23
  17   3  -2   94.83    8.26
   3 -17   2  165.95   16.47
  -3  17  -2  135.39   11.57
 -17  -3  -2   94.34   13.36
  17   3   2   94.08   13.24
  17   3   2  143.63   16.58
 -17  -3   2  114.11   16.54
  -3  17   2  146.73   15.69
   3 -17  -2  134.27   16.60
  -3  17   2  128.77   14.76
  17   3  -2  152.37   15.67
   3 -17   2  131.49   11.57
 -17  -3   2  106.98    9.52
  -3  17   2  179.42   16.74
 -17  -3   2  133.39   12.90
 -17  -3   2  125.97   14.17
  -3  17  -2  122.58   15.80
   3 -17  -2   96.15   16.16
 -17  -3  -2  122.67   15.48
  -3  17  -4    2.10    3.61
  17   3   4    9.65   15.34
   3 -17   4   -1.67   18.20
 -17  -3  -4   -5.34   15.56
   3 -17   4    2.07   15.87
 -17  -3  -4    9.88   13.16
  17   3  -4   15.81   13.41
  -3  17   4   16.00   14.74
  17   3  -4   -6.20    8.66
  17   3   4   14.15   14.77
 -17  -3   4    7.81   14.79
  -3  17   4   -8.60   16.21
   3 -17  -4    3.06   16.03
  17   3   4    6.95   15.04
  -3  17   4   -5.36   15.00
 -17  -3   4    9.60   14.65
   3 -17   4    5.18   10.37
   3 -17  -4   -2.61   14.52
  -3  17  -4  -22.51   17.19
  -3  17   6  -13.91   17.03
 -17  -3  -6   17.41   19.91
   3 -17   6    0.84   18.32
 -17  -3   6    9.42   13.02
  17   3   6   22.27   16.74
 -17  -3   6   35.34   18.35
 -17  -3  -6   36.27   14.44
   3 -17  -6    5.72   15.24
  17   3   6  -10.05   18.95
  -3  17  -6   19.54   17.41
   3 -17   6   15.15   20.37
 -17  -4   1   25.54   11.46
 -17  -4  -1    9.80    9.10
 -17  -4  -1   23.74   11.92
  17   4  -1   30.97    4.07
   4 -17  -1   32.15   11.03
  17   4   1   24.18    9.06
   4 -17   1   60.73   10.96
  17   4  -1   33.03    4.63
 -17  -4   1   54.58   13.84
 -17  -4   1   24.98    9.72
  -4  17   1   24.75   12.14
  17   4  -1   29.73   12.38
  -4  17  -1   25.87   10.25
  -4  17   1   33.46   13.25
  -4  17   1   24.04   11.89
  -4  17  -1   28.41   14.21
  -4  17  -1   22.41    9.65
  17   4   1   18.41   12.92
   4 -17  -1   15.75   14.47
  -4  17  -3   11.21    8.12
  17   4   3   22.65   14.25
   4 -17   3   31.54   17.21
 -17  -4  -3   24.57   12.76
 -17  -4   3   24.46    7.42
  17   4  -3   14.41    5.35
  17   4   3   -3.11   12.24
 -17  -4   3    9.92    5.89
  17   4  -3   13.24   12.56
  17   4   3   20.50   15.16
 -17  -4   3   22.40   14.31
  -4  17   3   25.17   14.89
   4 -17  -3    6.96   16.26
  -4  17   3    4.37   13.86
   4 -17   3    6.49   10.65
   4 -17   3   44.96   15.24
 -17  -4   3   -7.77   12.85
 -17  -4  -3   18.85   13.55
   4 -17  -3    6.91   14.34
  -4  17  -3    1.40   16.18
  17   4   5   82.55   17.42
   4 -17   5   57.05   20.31
 -17  -4  -5   66.62   18.79
   4 -17   5   45.93   18.19
  17   4  -5   46.07   10.84
  -4  17   5   28.27   16.33
  17   4   5   59.53   17.89
 -17  -4   5   24.71   13.42
  -4  17   5   41.25   19.19
  17   4   5   24.01   16.37
 -17  -4  -5   71.23   15.09
  -4  17   5   67.56   16.07
 -17  -4   5   46.64   16.06
   4 -17  -5   72.00   15.94
   4 -17   5   55.63   12.82
  -4  17  -5   65.15   18.75
  17   4   7   15.87   18.01
 -17  -4   7   13.61   18.72
  -4  17  -7  -17.48   19.36
  -5  17   0   -2.23   10.35
 -17  -5   0   11.06   11.13
  17   5   0    4.63    5.95
   5 -17   0  -18.55   11.12
 -17  -5   0   -5.59   13.53
  -5  17   0    3.18   11.42
  17   5   0   -6.12   11.86
  -5  17   0   21.94   13.57
   5 -17   0  -17.15   15.44
  17   5   2   -1.09   12.82
 -17  -5  -2    3.67   13.31
   5 -17   2   -1.49   16.71
  -5  17  -2    6.76    9.25
   5 -17   2    7.99   14.26
 -17  -5  -2   16.16   11.35
   5 -17  -2   -5.62   12.29
  17   5   2   -1.20   10.85
  17   5   2   -1.34   14.79
   5 -17  -2    9.18   14.73
  17   5  -2    0.45   11.76
  -5  17   2  -10.23   13.50
 -17  -5   2   10.54   14.09
   5 -17   2    2.87   10.68
 -17  -5   2  -18.44    7.51
  -5  17   2  -15.79   13.99
  -5  17  -2    5.42    8.54
  -5  17  -2   18.35   14.92
 -17  -5   2    6.11   11.36
   5 -17  -2    0.63   14.00
  -5  17   2    4.09   11.72
   5 -17   4   20.23   19.13
  17   5   4  -15.79   15.03
 -17  -5  -4    5.91   15.78
  -5  17   4    7.42   16.43
   5 -17   4  -11.77   16.69
  17   5  -4    4.84    7.40
  17   5  -4    8.01   12.42
 -17  -5  -4    0.64   13.30
  17   5   4    2.57   14.37
 -17  -5   4   16.05   14.08
  17   5   4   25.00   16.04
  -5  17   4   -1.43   14.91
  -5  17  -4   -1.62    5.17
  -5  17   4   -5.85   14.40
 -17  -5   4    7.29   13.70
   5 -17   4   -5.35   11.64
   5 -17  -4  -15.30   14.40
  -5  17  -4    1.56   17.10
   5 -17   6    4.03   20.91
  -5  17   6    9.95   16.92
 -17  -5  -6    3.63   19.26
   5 -17   6   -6.19   18.71
  17   5   6    7.30   19.09
 -17  -5   6    6.71   15.02
  17   5   6    4.91   17.13
 -17  -5   6  -16.42   16.81
 -17  -5  -6   21.82   14.30
   5 -17  -6   26.96   14.95
  -5  17  -6   -1.70   18.48
 -17  -6   1   31.12   10.83
 -17  -6  -1   10.72    8.66
 -17  -6  -1   46.12   11.96
  -6  17   1   36.22   12.54
   6 -17  -1   20.98   11.91
  17   6   1   31.28    8.78
  -6  17  -1   30.75   10.28
   6 -17   1   24.20   11.12
 -17  -6   1   31.94   10.47
  -6  17   1   20.21   13.07
  17   6  -1   35.05   12.21
 -17  -6   1   28.97   13.96
  -6  17   1   14.63   13.63
  -6  17  -1   17.01   10.74
  17   6   1   46.42   12.95
   6 -17  -1   13.00   14.88
  17   6   3    2.42   12.85
   6 -17   3  -18.44   18.69
   6 -17   3   20.15   16.52
 -17  -6  -3    7.03   13.91
 -17  -6  -3   38.02   13.73
  -6  17  -3    7.38   10.04
  17   6   3   16.71   13.03
  17   6  -3   10.79   11.95
  -6  17   3   15.79   14.79
  17   6   3   17.93   15.27
 -17  -6   3   10.70   13.38
  -6  17  -3   13.84    7.72
  -6  17   3    7.46   14.28
   6 -17   3   -0.41   11.97
 -17  -6   3   -6.91    6.88
 -17  -6   3   -2.68   11.78
   6 -17  -3   19.63   14.78
  -6  17  -3   -2.25   16.17
  17   6   5  -16.33   15.87
   6 -17   5  -12.69   20.59
 -17  -6  -5   24.84   17.51
   6 -17   5  -15.64   18.19
  17   6   5   11.65   17.03
   6 -17  -5  -20.12   18.47
  -6  17   5  -12.98   19.19
 -17  -6   5  -22.27   12.39
  -6  17   5  -18.81   16.68
  17   6   5    0.80   16.92
 -17  -6  -5   21.71   14.77
  -6  17   5    3.34   14.41
 -17  -6   5    6.32   14.58
   6 -17  -5   -3.87   15.00
   6 -17   5   -3.96   13.24
  -6  17  -5   22.86   19.01
 -17  -6  -7  -12.53   15.37
  17   6   7   39.23   18.63
   7 -17   0  -33.97   16.43
  17   7   0  -17.51   13.99
  17   7   0    4.40    4.23
   7 -17   0   -8.17   11.68
 -17  -7   0    4.67   10.87
 -17  -7   0   -6.83   11.21
  -7  17   0    0.45   11.77
  17   7   0   26.21   11.87
  -7  17   0  -10.75   13.33
  -7  17   0    1.94   11.30
 -17  -7   0    4.76   13.12
  17   7   2  120.35   14.60
   7 -17   2   81.64   19.97
  -7  17  -2   73.01   11.75
 -17  -7  -2  124.48   15.11
   7 -17   2   99.45   16.51
 -17  -7  -2   79.09   12.54
   7 -17  -2  104.82   14.47
  17   7   2   84.46   12.37
  17   7   2   69.82   15.76
  17   7  -2   81.09   13.43
  -7  17   2   90.80   15.62
 -17  -7  -2   79.43   15.69
   7 -17   2   83.73   13.51
  -7  17  -2  111.32   10.93
  -7  17   2  116.35   15.55
 -17  -7   2   54.91   14.92
 -17  -7   2  109.90   10.28
  -7  17   2   98.34   15.64
  -7  17  -2   83.10   16.33
   7 -17  -2   90.39   16.39
 -17  -7   2   81.42   12.50
 -17  -7  -4  -10.39   15.49
   7 -17   4  -20.50   20.46
   7 -17   4   -5.48   17.28
  -7  17  -4   -9.93    7.22
  17   7  -4   -3.17   11.46
  17   7   4   -7.17   15.21
  -7  17  -4   15.27    6.76
 -17  -7  -4    4.03   13.54
   7 -17  -4   11.23   17.21
  -7  17   4   32.62   17.54
  17   7   4  -19.39   16.29
 -17  -7   4    6.97   12.60
  17   7   4   41.91   15.25
  -7  17   4    6.98   14.31
 -17  -7   4   38.09   12.67
  17   7  -4    4.28    5.35
   7 -17   4   10.50   12.99
   7 -17  -4   -5.75   15.30
  -7  17   4   -6.67   15.33
  -7  17  -4    3.31   18.04
   7 -17   6   49.21   22.77
 -17  -7  -6   -0.90   19.34
  17   7   6    9.21   19.26
  17   7   6   27.82   18.08
  -7  17   6   -2.74   15.81
 -17  -7   6   11.35   15.49
   7 -17  -6   -1.97   14.39
 -17  -7  -6   13.00   14.81
   7 -17   6   -9.38   15.03
  -7  17  -6  -14.60   19.31
   8 -17  -1   10.19   15.87
   8 -17   1   25.13   17.34
  -8  17   1   19.58   13.06
 -17  -8   1   33.27   10.60
 -17  -8  -1   20.71    8.71
   8 -17  -1   25.41   12.70
  17   8   1   26.69    8.47
  17   8   1   30.86   15.05
  -8  17  -1   40.76   11.09
   8 -17   1   14.79   12.52
 -17  -8  -1   10.57   13.67
 -17  -8   1   25.44   11.10
  17   8  -1   39.62   11.28
  -8  17   1   14.34   12.96
  -8  17   1   51.32   14.97
 -17  -8   1   39.28   12.80
  -8  17  -1   24.98   11.18
  17   8   1   21.16   12.42
  17   8   3   33.76   13.68
   8 -17   3   49.90   19.94
   8 -17   3   43.56   17.53
  -8  17  -3   25.76   11.57
 -17  -8  -3   24.04   13.85
   8 -17  -3   31.39   14.56
 -17  -8  -3   47.77   13.73
  17   8  -3   14.66   11.04
  17   8   3   26.55   14.01
   8 -17  -3   37.99   16.33
  -8  17   3   49.53   16.10
  17   8   3    3.01   16.19
 -17  -8  -3   23.11   15.95
 -17  -8   3   35.98   13.82
  -8  17  -3   34.85    9.00
   8 -17   3   41.58   13.20
  -8  17   3   18.12   14.15
 -17  -8   3   29.45    8.10
 -17  -8   3   25.59   11.66
   8 -17  -3   43.01   15.78
  -8  17  -3   24.70   17.91
  17   8   5   14.06   16.51
   8 -17   5  -29.48   19.10
 -17  -8  -5    5.40   17.31
   8 -17   5   -3.09   20.51
   8 -17  -5  -40.15   18.94
  -8  17   5    9.00   19.27
 -17  -8  -5    4.66   19.03
  17   8   5   13.50   17.93
 -17  -8   5   -4.35   12.68
  -8  17   5   -5.24   15.18
  17   8   5   -8.70   17.17
 -17  -8  -5   11.39   15.54
 -17  -8   5  -11.50   13.61
  -8  17   5   30.71   17.32
   8 -17   5   22.39   14.43
   8 -17  -5  -11.53   14.46
  -8  17  -5    0.91   19.55
 -17  -9   0   12.83   13.01
   9 -17   0   -2.98   16.92
  -9  17   0   -1.07   12.01
 -17  -9   0   -7.32   10.60
  17   9   0   -4.72   14.17
   9 -17   0   19.23   13.23
  17   9   0    2.14    3.16
 -17  -9   0    6.33   12.11
  -9  17   0  -13.09   12.28
  17   9   0   -9.26   11.30
  -9  17   0   -3.34   15.06
 -17  -9   2   62.19   10.80
  17   9   2   60.30   13.48
  -9  17  -2   56.79   12.53
  -9  17   2   71.43   15.15
   9 -17   2   30.17   16.40
 -17  -9  -2   55.09   14.94
 -17  -9  -2   65.54   12.18
  -9  17  -2   69.84   10.88
   9 -17  -2   71.67   14.34
  17   9   2   53.95   11.64
  17   9  -2   55.27   12.16
   9 -17  -2   83.98   17.17
  -9  17   2   74.07   16.06
 -17  -9  -2   60.24   16.22
   9 -17   2   67.85   14.36
 -17  -9   2   75.75   10.76
  -9  17   2   76.97   14.77
  -9  17  -2   42.96   16.62
   9 -17  -2   52.67   16.55
   9 -17   4    8.89   21.30
   9 -17   4  -36.36   17.79
 -17  -9  -4   17.43   15.96
  17   9  -4    3.64   10.88
  -9  17   4   37.95   16.99
  -9  17  -4   -0.30    9.10
  -9  17  -4   -6.82    8.02
  17   9   4  -10.64   14.99
   9 -17  -4    0.82   17.84
  -9  17   4   -0.80   18.16
 -17  -9  -4   16.86   14.19
  17   9   4   24.45   16.24
  -9  17   4   29.55   14.90
 -17  -9   4  -28.47   12.16
   9 -17   4   14.13   13.95
 -17  -9   4    9.42   10.99
  17   9   4  -20.71   14.99
   9 -17  -4    1.93   15.30
  -9  17  -4   37.87   19.29
 -17  -9   4   -3.41    5.98
 -17  -9  -6   17.58   16.01
 -17  -9  -6   24.26   19.26
  17   9   6    2.79   19.38
  17   9   6   13.77   18.77
   9 -17   6   21.53   23.27
   9 -17   6   -5.83   15.56
  -9  17  -6   -2.91   20.73
  10 -17  -1    2.18   16.33
  10 -17   1   -1.64   17.81
 -17 -10  -1  -12.23   13.52
 -17 -10   1  -10.74   10.08
  17  10  -1  -11.87   14.48
  10 -17  -1   -6.93   13.51
  17  10   1    0.50    8.06
 -10  17   1   -5.00   12.67
  17  10   1   -9.23   14.47
 -10  17  -1    7.41   11.83
  10 -17   1   -3.15   14.04
 -17 -10  -1    1.02    8.43
 -17 -10  -1   -3.74   13.69
  17  10  -1    0.37   10.69
 -17 -10   1   17.29   12.05
 -10  17   1    8.73   14.34
 -10  17   1   12.32   14.24
 -10  17  -1   22.81   16.53
 -10  17  -1    2.51   12.58
  17  10   1   18.24   11.84
 -17 -10   1   16.79   13.26
 -10  17  -3   14.57    9.61
  17  10   3   30.88   14.82
  10 -17   3   27.40   19.58
  10 -17   3   39.10   17.78
 -10  17  -3   20.65   12.00
 -17 -10  -3   13.02   13.33
  10 -17  -3   20.44   14.92
  17  10  -3   20.38   10.24
 -17 -10  -3   13.15   13.97
  17  10   3    8.50   13.51
  10 -17  -3   -0.77   17.82
 -10  17   3    8.75   17.24
 -17 -10  -3   36.72   16.83
  17  10   3    5.51   16.85
  10 -17   3   16.38   14.16
 -10  17   3  -16.96   14.75
 -17 -10   3   11.67    7.77
 -17 -10   3   12.18   12.71
 -10  17  -3   -5.08   18.86
 -17 -10   3    2.15    9.78
  10 -17  -3   24.89   17.10
  17  10   5   -3.94   16.79
 -10  17   5    8.44   16.67
  10 -17   5   55.66   20.20
 -17 -10  -5  -20.04   17.95
  17  10   5   28.94   17.67
  10 -17  -5   11.87   19.94
 -10  17   5  -23.24   19.93
 -17 -10  -5   29.75   19.61
 -10  17   5  -21.80   14.82
  17  10   5  -16.83   18.27
  10 -17   5  -30.52   21.68
 -17 -10  -5   20.17   15.24
  10 -17   5  -16.81   15.26
  10 -17  -5  -17.54   15.04
 -10  17  -5   41.30   21.10
  11 -17   0    9.57   17.02
 -17 -11   0    9.41   12.38
  17  11   0  -16.73   15.07
  11 -17   0   12.75   14.34
 -17 -11   0    5.63   12.12
 -17 -11   0   -2.62    2.50
 -11  17   0  -11.25   13.83
  17  11   0   -8.76   11.16
 -11  17   0   19.18   15.92
  11 -17  -2   58.24   17.92
  17  11   2   55.39   14.05
 -11  17  -2   54.64   13.81
 -17 -11   2   73.96   10.40
 -17 -11  -2   61.95   12.64
 -11  17   2   59.38   15.47
  11 -17  -2  105.49   16.41
  17  11   2   96.32   12.58
  17  11  -2   72.84   11.34
  11 -17  -2  104.84   18.64
 -17 -11  -2   75.00   16.63
  11 -17   2   61.81   15.48
 -11  17   2   98.75   17.24
 -17 -11   2   91.94   12.38
 -11  17   2   91.87   16.20
 -17 -11   2   91.11   15.18
  11 -17   4  -11.50   21.68
  11 -17   4  -13.05   18.61
 -17 -11  -4   -7.75   14.80
 -11  17  -4   11.48   10.41
  17  11   4   22.22   16.04
  11 -17  -4  -33.63   18.79
  17  11   4  -16.00   15.84
 -11  17   4    2.52   18.41
 -11  17  -4    4.79    8.74
 -17 -11  -4   16.17   15.47
  17  11   4    2.56   17.37
 -11  17   4   13.23   15.10
 -11  17   4   15.50   16.84
  11 -17   4   21.49   15.55
 -17 -11   4   12.96    9.82
 -17 -11   4    9.75   10.76
 -11  17  -4  -22.35   20.00
  11 -17  -4  -35.46   16.39
  17  11   6  -10.44   20.19
  11 -17   6   17.00   16.82
  12 -17  -1    9.32   17.48
  12 -17   1   -0.88   18.74
 -17 -12   1    9.86   13.15
 -17 -12  -1   15.14    8.72
 -17 -12  -1    8.00   14.49
  17  12  -1   17.82   15.10
  12 -17  -1   -7.65   14.63
  17  12   1    8.58    8.72
  17  12   1   22.12   16.01
  12 -17   1   10.05   14.71
  17  12  -1    1.33   10.21
 -17 -12  -1   15.16   13.82
 -17 -12   1  -25.57   12.64
 -12  17   1  -31.15   15.09
 -12  17   1   -1.35   15.45
 -12  17  -1    6.17   15.84
 -12  17  -1   -3.96   13.07
  17  12   1    0.92   11.85
 -17 -12   3   35.64   13.05
  12 -17  -3   28.96   17.30
 -17 -12   3   20.74    9.25
  17  12   3   13.44   14.00
  12 -17   3   27.05   19.68
 -12  17  -3   27.32   12.97
 -17 -12  -3    8.91   13.84
  12 -17  -3   45.37   15.87
  17  12  -3   33.78    9.69
  17  12   3   27.91   13.75
  12 -17  -3   61.29   18.01
 -17 -12  -3   49.86   15.63
 -12  17   3   16.24   17.36
 -17 -12  -3   14.20   17.12
  17  12   3   75.78   18.14
  12 -17   3    9.84   15.59
 -12  17   3   40.92   15.01
 -17 -12   3   34.88   10.03
 -12  17  -3   29.23   18.70
  17  12   5   28.74   17.41
  12 -17   5  -33.32   23.46
 -17 -12  -5   20.87   17.38
  17  12   5   16.34   18.43
 -12  17   5   23.13   14.96
  17  12   5   -2.79   18.89
  12 -17   5   -8.93   16.33
 -17 -12  -5   22.89   16.34
  12 -17  -5   10.58   15.75
 -12  17  -5    8.06   22.58
  13 -17   0  -21.32   17.58
 -17 -13   0    7.77   14.00
 -17 -13   0   -2.65    3.08
  17  13   0   28.09   15.92
 -17 -13   0    0.61   13.65
  17  13   0   10.09   10.87
 -13  17   0  -14.90   15.42
 -13  17   0   -1.49   16.18
  13 -17   0    0.64   15.83
  13 -17  -2   77.35   19.47
 -13  17  -2  100.46   15.87
  17  13   2  105.35   15.27
 -17 -13   2  108.77   15.85
  13 -17   2   83.90   21.13
 -17 -13   2  119.32   10.71
 -17 -13  -2  103.22   13.05
  17  13  -2   88.42   16.79
  13 -17  -2  132.86   17.54
 -13  17   2  133.22   17.61
  17  13  -2  119.13   12.13
  17  13   2   98.08   13.11
  13 -17  -2  115.64   19.49
  13 -17   2  101.48   17.28
 -17 -13  -2   99.70   17.51
 -13  17   2  127.66   18.36
 -17 -13   2   93.66   14.43
 -13  17   2  121.26   17.49
  13 -17  -4   -2.11   16.68
 -17 -13   4   -6.25   11.23
  17  13   4    8.47   15.46
  13 -17   4  -17.60   22.51
 -13  17   4    9.44   17.60
 -17 -13  -4  -13.75   15.60
  13 -17  -4  -15.61   16.91
  17  13   4   -0.67   15.87
  13 -17  -4   42.18   18.28
 -13  17   4  -16.76   19.10
  17  13   4  -20.59   18.82
 -13  17   4   -0.63   15.12
 -17 -13  -4  -20.90   16.14
  13 -17   4   13.62   16.35
 -13  17  -4  -18.53   21.86
  13 -17   6    9.28   17.82
  17  14   1   20.77   12.05
  14 -17  -1   41.03   19.63
  14 -17   1   13.08   19.16
 -17 -14   1   15.75   13.97
 -17 -14  -1    6.61    9.38
 -17 -14  -1   48.17   14.02
  17  14  -1   31.95   16.13
  14 -17   1   41.17   17.09
  14 -17  -1   38.02   15.93
  14 -17   1   22.94   16.19
  17  14   1   33.14   15.84
  17  14  -1   17.93   10.14
 -17 -14  -1   20.29   14.58
 -17 -14   1   34.24   14.28
 -14  17   1   19.31   16.08
 -14  17   1    7.17   15.94
 -14  17  -1   12.27   17.39
 -14  17  -1   10.04   14.39
  14 -17  -3   22.58   18.44
 -17 -14   3   51.15   13.20
  17  14   3   28.51   14.41
 -14  17  -3   15.60   14.25
 -17 -14  -3   31.04   13.58
  14 -17  -3   49.36   16.69
  17  14   3   22.08   12.92
  14 -17  -3   11.53   19.05
 -14  17   3   37.04   18.37
 -17 -14  -3   46.80   15.80
 -17 -14  -3   41.63   17.95
  17  14   3   37.14   18.09
  14 -17   3   30.91   17.05
 -14  17   3   14.34   15.40
 -17 -14   3   12.45   11.92
 -14  17  -3   42.16   20.74
  17  14   5  -13.01   17.11
 -17 -14  -5   -1.57   17.66
  17  14   5   -5.74   18.35
  14 -17   5    4.53   17.05
  15 -17   0   -6.36   19.14
 -17 -15   0    5.62    4.11
 -17 -15   0    6.67   14.50
  15 -17   0    2.10   16.30
  17  15   0   -0.75   16.13
 -17 -15   0   44.41   15.37
  17  15   0    1.40   10.70
 -15  17   0  -13.59   15.35
 -15  17   0    2.37   16.99
  15 -17  -2   -0.82   18.51
 -15  17  -2   11.72   14.90
  17  15   2    0.54   12.89
  15 -17   2   31.73   21.96
 -17 -15   2    6.75   13.35
 -17 -15  -2   -0.42   11.40
  17  15  -2   -4.89   15.72
  15 -17  -2    9.94   16.33
  17  15  -2    6.50    7.80
  17  15   2   25.98   11.48
  15 -17  -2   39.05   18.32
 -17 -15  -2   51.53   15.55
  15 -17   2   23.09   16.96
  17  15   2   16.69   16.42
 -17 -15  -2    5.60   16.10
 -15  17   2   17.03   17.11
 -17 -15   2   17.50   13.41
 -15  17   2   27.43   15.34
  15 -17   2  -18.37   17.96
 -15  17  -2   -7.16   18.56
  15 -17  -4  -20.45   17.49
  15 -17   4   25.56   22.74
 -17 -15  -4    4.66   15.57
  15 -17  -4    3.48   17.27
  17  15   4   26.60   16.03
  15 -17  -4    7.92   18.96
  17  15   4  -16.14   15.27
 -15  17   4   13.03   20.34
 -17 -15   4   -2.83   11.04
 -15  17   4    6.40   14.88
  17  15   4   -8.47   18.92
  15 -17   4   14.25   17.67
 -17 -15  -4   -2.44   16.16
  17  16   1   15.14   12.10
 -16  17  -1  -22.19   15.78
  16 -17  -1   -7.10   19.07
  16 -17   1   -4.95   20.75
  16 -17   1   -8.06   17.82
 -17 -16  -1    5.99    9.76
 -17 -16   1   15.52   14.27
  16 -17  -1  -33.65   16.90
  17  16  -1  -26.68   16.16
 -17 -16  -1    4.28   14.37
  16 -17   1   13.74   17.07
  17  16  -1    5.76    9.03
  17  16   1   -2.42   16.57
 -17 -16  -1   21.88   15.86
 -17 -16   1   18.27   15.06
 -16  17   1    9.68   17.06
 -16  17   1   17.24   16.47
 -16  17  -1   24.07   19.31
  16 -17  -3   -7.16   18.03
  17  16   3  -15.77   14.46
 -16  17  -3   24.93   15.43
  16 -17   3   18.30   19.05
 -17 -16   3  -23.79   13.23
 -17 -16  -3   17.04   13.93
  16 -17  -3    0.84   17.51
  17  16   3    4.32   13.19
  16 -17  -3   36.48   19.21
 -17 -16  -3   17.18   17.71
 -16  17   3    2.63   19.50
  16 -17   3   19.69   17.39
 -16  17   3    0.67   14.47
 -17 -16   3   -3.74   12.94
 -17 -16  -5  -22.31   18.67
  17  16   5  -28.12   18.44
  16 -17   5   -4.11   18.28
  17 -17   0   26.10   20.29
 -17 -17   0   26.26   15.01
  17 -17   0   22.90   17.35
  17  17   0   -1.57   15.99
 -17 -17   0   15.32   15.04
  17  17   0    0.33   10.15
 -17  17   0   14.87   16.47
 -17  17   0   26.60   18.77
 -17  17  -2   12.95   16.30
  17  17   2   16.81   13.50
  17 -17  -2   27.53   19.29
  17 -17   2   15.17   21.46
  17 -17   2   20.21   19.16
 -17 -17  -2   14.50   12.17
 -17 -17   2    4.39   14.10
  17  17  -2    6.56   16.02
  17 -17  -2   -1.64   17.33
  17 -17  -2   60.07   19.33
  17 -17   2   36.20   18.12
 -17 -17  -2    2.56   17.98
  17  17   2   19.36   18.16
 -17 -17  -2   -4.61   15.77
 -17  17   2   19.13   17.90
 -17 -17   2   28.25   14.24
 -17  17   2   -7.14   16.29
 -17  17  -2   47.45   21.04
  17  17   4  -19.80   15.83
 -17 -17  -4   14.27   16.24
  17 -17  -4   -9.89   18.63
  17  17   4   -2.71   15.37
 -17  17   4   21.33   14.99
  17 -17   4   13.11   18.24
  17  18   1   14.03   12.22
 -18  17  -1   -7.59   16.59
  18 -17  -1   -8.40   20.21
  18 -17   1  -14.69   21.12
  18 -17   1   -4.23   18.84
  18 -17  -1   16.55   18.30
 -17 -18   1   20.04   14.22
  17  18  -1   28.50   16.74
  18 -17   1   53.07   18.99
  17  18   1  -11.93   17.56
 -17 -18  -1   17.80   15.47
 -17 -18  -1   29.38   17.38
 -17 -18   1   11.46   15.47
 -18  17   1   -1.61   17.08
 -18  17   1    6.38   17.97
 -18  17  -1   24.74   19.28
  18 -17  -3  -11.47   18.36
  17  18   3   -5.15   15.29
 -17 -18  -3   14.26   14.37
 -18  17  -3    9.42   14.36
 -18  17  -3  -16.77   16.88
 -17 -18   3    4.80   13.22
  18 -17  -3   13.09   18.57
  17  18   3   -9.63   13.60
  18 -17   3   43.94   19.74
 -18  17   3  -17.87   15.73
 -17 -18   3   13.50   14.87
 -17 -18  -5   33.30   18.40
  17  18   5  -35.01   18.70
  18 -16   0   34.14   17.30
  18 -16   0   35.16   20.48
 -16 -18   0   50.96    7.86
  18 -16   0   39.78   18.35
 -16 -18   0   42.58   14.86
  16  18   0   34.16   17.06
 -16 -18   0   52.34   17.03
  16  18   0   14.84    9.35
 -18  16   0   24.33   16.46
 -18  16   0   31.50   18.64
 -18  16  -2   12.64   16.33
  18 -16  -2   14.19   18.73
  16  18   2   14.71   13.11
  18 -16   2  -17.28   21.37
  18 -16   2   -2.61   18.25
 -16 -18  -2  -10.13   12.61
  18 -16  -2    9.21   17.30
  16  18  -2   -2.83   14.90
 -16 -18   2  -12.65   13.45
  18 -16  -2   -1.65   18.51
  16  18  -2   -8.21   14.36
  18 -16   2   -3.97   17.57
 -16 -18  -2   42.10   18.46
 -18  16   2   16.76   18.11
 -16 -18   2   15.54   15.00
 -16 -18  -2  -18.98   15.34
 -18  16   2    1.39   15.85
 -18  16  -2  -19.89   19.97
  16  18   4   44.78   16.84
 -16 -18  -4   22.89   16.68
  18 -16  -4   10.47   18.33
  16  18   4   20.89   16.07
  18 -16   4  -18.62   19.41
 -18  15  -1   13.92   15.80
  15  18   1    0.80   11.47
  18 -15  -1   17.93   18.97
  18 -15   1  -12.54   17.07
  18 -15   1    7.87   18.96
 -15 -18   1    6.00    4.55
 -15 -18  -1    5.46   10.58
 -15 -18   1    2.32    4.98
  18 -15  -1   -7.89   16.73
  15  18  -1    4.94   14.66
 -15 -18   1   26.80   13.76
  15  18  -1   16.29   14.95
  18 -15   1    4.58   17.28
 -15 -18  -1  -17.19   16.43
  15  18   1   23.95   16.39
 -15 -18  -1    5.54   15.17
 -15 -18   1   18.53   15.21
 -18  15   1  -30.90   17.24
 -18  15   1   -7.39   16.83
 -18  15  -1  -11.25   18.62
 -18  15  -3   23.99   21.79
  18 -15  -3   -3.63   16.53
  15  18  -3   10.81   14.72
 -18  15  -3   10.48   16.10
  18 -15   3  -32.66   23.29
  15  18   3  -11.44   14.57
 -15 -18  -3    5.24   14.01
 -18  15  -3   19.65   14.45
  18 -15  -3   12.89   17.50
  18 -15  -3    0.80   18.21
 -15 -18   3    3.19   11.86
  15  18   3    3.53   14.06
  15  18  -3  -12.53   13.14
 -15 -18  -3  -18.21   17.69
 -18  15   3   -1.78   19.06
  18 -15   3    7.20   18.89
  18 -15   3  -15.28   17.81
 -18  15   3   -4.31   13.89
 -15 -18   3   -7.83   14.58
  15  18   5  -11.47   17.18
 -15 -18  -5   10.60   17.92
  15  18   5   -4.25   18.16
  18 -14   0   11.47   18.32
 -14 -18   0   21.40    9.50
  18 -14   0    5.22   16.81
  14  18   0   18.10   15.68
  14  18   0   41.82   15.18
 -14 -18   0   29.93   13.46
 -14 -18   0   13.62   15.78
  14  18   0   12.83    8.01
  18 -14   0   29.45   16.60
 -18  14   0   32.11   16.15
 -18  14   0   14.80   18.12
 -18  14  -2   -5.44   20.62
 -18  14  -2   13.00   15.93
  18 -14  -2  -15.74   16.69
  14  18   2   15.08   12.90
  18 -14   2   -9.69   17.64
  18 -14   2   -1.02   21.01
 -14 -18  -2    9.71   13.03
  18 -14  -2    4.80   17.31
  14  18  -2    1.28   14.53
  18 -14  -2   -8.25   17.58
 -14 -18   2   16.82   12.19
  14  18  -2   17.22   13.61
  18 -14   2    8.41   17.14
 -14 -18  -2    0.83   16.72
 -18  14   2   16.01   16.89
 -14 -18   2   20.06   15.08
 -18  14   2    3.80   14.61
  14  18   2   13.16   16.03
 -14 -18  -2   34.39   14.93
  18 -14   4   22.43   20.07
 -14 -18  -4   28.69   15.97
  18 -14  -4   33.06   18.42
  14  18   4   57.85   16.70
 -18  14  -4   33.78   13.72
  18 -14   4   35.42   18.66
 -18  13  -1    5.75   18.84
 -18  13  -1    8.46   15.48
  13  18   1    9.11   10.36
  18 -13  -1   19.53   17.27
 -13 -18   1    1.56    6.90
  18 -13   1   31.04   16.53
  18 -13   1   11.07   18.47
 -13 -18  -1   -6.00   11.06
 -13 -18   1   -1.92    8.15
  18 -13  -1   23.41   17.60
  13  18   1    5.39   16.56
  13  18  -1   -9.85   14.31
  18 -13   1   15.42   16.54
  13  18  -1   22.66   14.60
 -13 -18   1   -1.67   12.09
 -13 -18  -1    3.74   15.50
 -13 -18   1  -10.56   15.15
 -18  13   1   14.03   16.16
  13  18   1    6.30   14.77
 -13 -18  -1  -20.69   13.70
 -18  13   1    4.78   15.71
 -18  13  -3   24.53   21.67
  18 -13  -3   13.99   15.79
  18 -13   3   35.48   19.25
 -13 -18  -3   24.52   13.73
  13  18  -3   36.62   14.14
 -18  13  -3   39.78   15.13
  18 -13  -3   49.40   16.98
  13  18   3   27.39   14.62
  13  18  -3   24.53   13.87
 -13 -18   3   24.98   10.98
 -18  13  -3   33.77   15.80
  18 -13   3   30.33   17.68
 -18  13   3   16.92   13.59
 -13 -18   3   54.32   14.95
 -13 -18  -5  -14.70   18.08
  18 -13  -5   41.29   19.11
  13  18   5   31.94   19.29
  18 -12   0   -1.64   17.60
  18 -12   0   -1.96   15.39
 -12 -18   0   21.78   10.36
  18 -12   0   12.16   16.16
  12  18   0   36.25   15.68
 -12 -18   0   33.11   14.99
 -12 -18   0   11.59   12.59
  12  18   0   40.77   14.10
 -18  12   0   36.83   15.08
  12  18   0   12.24    7.58
 -18  12   0   10.98   17.57
  12  18   2    6.59   16.32
 -18  12  -2  -26.56   19.78
 -12 -18  -2   30.58   13.79
 -18  12  -2    2.80   15.27
  18 -12  -2   17.45   15.52
 -12 -18   2   -2.82    6.28
  18 -12   2    8.78   20.17
  12  18   2    3.18   11.67
 -18  12  -2   11.34   15.14
 -12 -18  -2    4.57   13.09
 -12 -18   2    6.62    8.38
  18 -12  -2   16.22   15.61
  12  18  -2    2.89   13.82
  18 -12   2  -22.52   17.01
  12  18  -2   -0.61   13.71
  18 -12   2   10.33   16.34
 -12 -18  -2    7.10   16.15
 -12 -18   2   -4.91   11.24
 -18  12   2   16.02   17.02
 -12 -18   2    6.81   14.34
 -18  12   2    4.62   13.99
  12  18   4   35.71   18.27
  18 -12   4   -5.31   18.87
 -12 -18  -4   12.79   16.20
  18 -12  -4   21.57   17.87
 -12 -18  -4   23.13   15.95
  18 -12  -4   17.19   17.21
  12  18   4   41.01   17.50
 -18  12  -4   -6.46   13.08
  12  18  -4   20.82   12.98
 -18  12   4   19.87   19.45
 -12 -18  -4   -6.34   18.21
 -18  12   4   17.95   12.38
 -12 -18   4    2.73    8.90
  18 -12   4   21.74   17.67
 -12 -18   4   10.92   15.88
  11  18   1   30.93   13.98
 -18  11  -1   -7.87   17.64
 -18  11  -1    7.46   14.03
 -11 -18  -1   26.30   13.07
 -11 -18   1   14.65    8.74
  18 -11   1    6.11   18.24
  11  18   1   18.72    9.36
 -11 -18  -1    2.16   11.63
 -11 -18   1   13.77    9.79
  18 -11  -1    5.01   15.44
  11  18   1   50.18   15.93
  11  18  -1   27.66   14.43
  18 -11   1   -0.71   15.85
  18 -11  -1   32.21   16.49
  18 -11   1   11.94   15.59
 -11 -18  -1   12.28   15.07
 -11 -18   1    3.83   14.49
 -18  11   1   -7.71   15.00
 -11 -18   1   17.47   12.06
 -18  11   1   13.98   15.45
 -18  11  -3   59.66   21.92
  18 -11  -3   55.18   14.52
 -18  11  -3   57.35   16.11
  18 -11   3   85.36   18.95
 -11 -18   3   44.50    8.64
 -11 -18  -3   44.87   15.22
  18 -11  -3   52.49   17.69
  11  18  -3   35.02   13.34
 -18  11  -3   80.37   15.38
  18 -11  -3   35.59   16.15
  11  18   3   81.55   16.41
  11  18  -3   44.32   13.60
  18 -11   3   42.92   17.46
 -11 -18   3   53.63   11.08
 -18  11   3   30.13   13.55
 -11 -18   3   72.52   16.20
 -11 -18  -5   17.26   17.98
  18 -11  -5    1.63   17.75
  11  18   5   47.94   19.57
  18 -11   5   20.46   18.84
 -18  10   0   67.10   17.98
 -10 -18   0  121.54   14.18
  10  18   0   83.19    8.24
  18 -10   0   75.32   15.86
  18 -10   0   76.87   18.24
  10  18   0  107.54    8.78
 -10 -18   0   95.85   12.67
  18 -10   0  119.70   17.88
  10  18   0   82.57   15.95
 -10 -18   0  108.62   16.50
 -18  10   0   96.97   16.13
  10  18   0  103.61   14.78
 -18  10  -2   14.66   18.35
  10  18   2   22.28   14.18
 -18  10  -2   13.54   14.96
 -10 -18  -2   22.84   13.89
  18 -10  -2  -34.23   15.13
 -10 -18   2   -6.43    9.37
  18 -10   2   -6.29   15.92
 -10 -18  -2    5.31   13.11
 -18  10  -2   21.64   14.26
  18 -10  -2   19.32   15.42
  10  18   2   -6.23   16.38
  10  18  -2   17.73   12.43
  10  18  -2    2.99   13.99
 -10 -18  -2   18.11   15.62
  18 -10   2   10.67   15.98
 -10 -18   2   -3.09   14.78
 -18  10   2  -10.99   13.95
 -10 -18   2    7.61   10.77
 -10 -18   4   37.43   16.52
 -10 -18   4   37.63    8.93
  10  18   4   51.55   16.61
  18 -10   4   46.23   18.41
 -10 -18   4   35.34   11.01
 -10 -18  -4   26.61   16.72
  18 -10  -4   38.83   17.44
  18 -10  -4   20.88   16.54
  10  18   4   58.15   18.05
 -10 -18  -4   68.50   15.76
 -18  10   4   70.68   20.10
 -18  10  -4   56.28   14.08
  10  18  -4   43.08   14.21
 -10 -18  -4   18.17   17.38
 -18  10   4   39.27   11.57
  18 -10   4   11.81   17.75
  18 -10  -6  -19.47   19.25
 -18   9  -1   17.57   14.43
 -18   9  -1   22.25   17.11
  -9 -18   1   31.66   11.31
   9  18   1    1.24   13.53
  18  -9   1   11.02   14.53
  18  -9  -1    1.97   15.63
  -9 -18  -1   46.22   13.76
  -9 -18  -1   25.17   12.78
  -9 -18   1   14.32   10.71
   9  18   1   39.02   15.70
   9  18  -1   13.69   13.83
  18  -9   1   17.74   15.57
  -9 -18  -1   18.81   14.16
  -9 -18   1   10.60   14.39
   9  18  -1    9.29   12.19
 -18   9   1   18.34   15.40
 -18   9  -3  -21.74   20.64
  -9 -18   3    8.64    9.39
 -18   9  -3   -2.80   14.84
  18  -9   3   16.40   17.07
  -9 -18   3   36.22   10.62
  -9 -18  -3   24.48   14.96
  18  -9  -3   -2.28   16.54
  18  -9  -3   18.94   13.07
   9  18  -3   24.04   11.48
  18  -9  -3    4.79   14.43
 -18   9  -3    8.64   13.58
   9  18  -3   16.31   13.87
 -18   9   3   28.39   17.32
  -9 -18  -3   24.54   16.43
  18  -9   3    6.59   16.26
 -18   9   3   38.89   12.13
  -9 -18   3   50.34   15.85
  -9 -18  -5   40.19   16.91
  -9 -18   5   -5.95   17.45
 -18   9  -5   48.37   23.89
 -18   9  -5    6.36   19.76
   9  18   5   51.55   17.94
  18  -9   5   76.84   20.23
  18  -9  -5   62.51   18.69
  -9 -18  -5   23.96   17.99
  18  -9  -5   37.61   17.68
   9  18   5    7.91   19.47
 -18   9   5   30.47   20.17
  -9 -18  -5   40.44   18.42
  18  -9   5   43.77   18.33
 -18   9  -5   48.50   12.93
 -18   8   0   42.08   16.54
   8  18   0   55.71   13.01
  18  -8   0   17.15   13.49
   8  18   0   35.13    6.77
  -8 -18   0   27.01   12.03
   8  18   0   38.56    6.92
  -8 -18   0   30.71   11.13
   8  18   0   19.60   14.00
  -8 -18   0   39.59   14.57
 -18   8  -2   32.00   18.91
 -18   8  -2   17.02   13.89
  -8 -18   2   22.79   10.48
  -8 -18   2   30.67   10.65
  18  -8  -2   -0.53   13.51
  18  -8   2   20.26   14.61
   8  18   2   37.71   13.81
  -8 -18  -2   24.09   14.23
 -18   8  -2   43.44   14.84
  -8 -18  -2   29.06   13.16
  18  -8  -2   35.32   15.70
  18  -8  -2   19.79   14.05
   8  18   2   23.15   14.68
   8  18  -2    0.60   13.54
 -18   8   2   24.76   15.13
  18  -8   2   -8.24   15.68
  -8 -18   2   23.28   14.49
 -18   8   2   56.37   13.36
  -8 -18   4  -12.36   16.30
 -18   8  -4    7.13   18.55
  18  -8   4    5.62   18.03
   8  18   4  -18.19   16.03
  -8 -18   4    6.02   11.65
  18  -8  -4   45.77   17.37
  -8 -18  -4    3.64   16.56
  18  -8  -4   -2.61   15.63
  -8 -18   4   -3.46    8.07
   8  18   4   19.68   17.23
 -18   8   4   23.82   18.20
   8  18  -4    6.40   13.84
 -18   8  -4   -4.14   13.64
  -8 -18  -4   -1.65   16.25
 -18   8   4  -15.58    9.69
  18  -8   4  -22.35   16.39
  -8 -18  -4    1.50   15.22
  18  -8  -6   58.77   19.64
 -18   7   1   97.76   16.28
   7  18  -1  105.38   13.18
 -18   7  -1   55.39   14.53
 -18   7  -1   75.82   18.55
  18  -7   1   85.51   15.00
   7  18   1  102.00   15.24
   7  18   1  110.24   11.20
  -7 -18   1  103.60   12.96
 -18   7  -1  115.89   16.68
  -7 -18  -1   89.62   14.12
  -7 -18  -1  105.65   13.88
  18  -7  -1   87.33   16.58
   7  18   1   72.37   16.12
   7  18  -1   89.07   15.28
  -7 -18  -1   91.48   15.02
 -18   7   1   83.07   16.51
  -7 -18   1   87.09   15.77
 -18   7  -3   77.75   21.53
  18  -7   3   97.64   16.97
 -18   7  -3   52.67   15.22
  -7 -18  -3   80.25   15.72
  18  -7  -3   83.31   17.15
  -7 -18   3   86.96   10.25
  18  -7  -3   81.30   14.50
   7  18  -3   58.45   11.27
 -18   7  -3   48.40   14.69
   7  18   3   65.12   16.30
 -18   7   3   80.75   17.74
   7  18  -3   60.36   14.72
  -7 -18  -3   48.65   16.78
 -18   7   3   47.00   11.68
  18  -7   3   45.57   16.66
  -7 -18   3   66.32   16.60
  -7 -18   3   81.07   12.90
  18  -7   5   39.15   17.68
 -18   7  -5  -13.70   12.44
  -7 -18   5   -2.79   17.17
 -18   7  -5   24.72   23.54
 -18   7  -5   -3.52   19.98
  18  -7   5   -4.44   18.40
  -7 -18   5    7.33   12.88
  18  -7  -5   -4.97   17.15
   7  18   5   26.17   18.60
  -7 -18  -5   12.45   18.05
  18  -7  -5  -11.47   16.94
  -7 -18  -5    4.01   16.05
   7  18   5   30.14   19.85
 -18   7   5   -2.65   19.80
  -7 -18  -5   -0.86   17.51
   7  18  -5    4.08   14.00
 -18   6   0  223.51   22.37
  -6 -18   0  239.98   19.36
  18  -6   0  245.65   19.45
   6  18   0  278.19   15.75
  -6 -18   0  293.26   21.09
  18  -6   0  268.88   21.88
   6  18   0  271.62   21.20
   6  18   0  296.59   20.00
  -6 -18   0  291.59   19.38
 -18   6  -2   24.07   18.75
 -18   6  -2   39.89   13.70
  -6 -18   2   42.97   11.86
  18  -6   2   44.94   14.72
   6  18   2   36.81   12.30
   6  18   2   58.83   13.51
  -6 -18  -2   36.62   14.12
 -18   6  -2   51.23   14.95
  18  -6  -2   78.90   16.61
  18  -6  -2   41.41   12.97
  -6 -18   2   48.41   10.53
   6  18  -2   51.05   14.19
 -18   6   2   54.70   15.79
  -6 -18  -2   55.63   13.29
  -6 -18   2   55.30   14.87
   6  18  -2   36.05   11.04
 -18   6   2   40.21   12.28
  -6 -18   4   15.04   16.51
 -18   6  -4  -18.25   17.38
  -6 -18   4   39.47   12.93
  18  -6   4   11.51   17.02
   6  18   4    7.57   15.69
  -6 -18  -4   -5.12   15.07
   6  18  -4    3.79    8.47
  18  -6  -4   23.29   16.09
  -6 -18  -4    6.62   16.36
   6  18   4   -9.19   16.36
  18  -6  -4   -0.61   14.62
  -6 -18   4    7.68    7.54
   6  18   4  -19.96   17.24
 -18   6   4    2.34   17.37
 -18   6   4   14.12    7.04
  -6 -18  -4    9.51   16.21
   6  18  -4   15.02   14.03
 -18   6  -4  -13.47   12.66
  18  -6   4   18.24   16.60
  -6 -18   6   24.67   15.16
  18  -6  -6   10.61   17.78
  -6 -18  -6   48.17   19.01
 -18   5   1  131.57   16.26
 -18   5  -1   92.37   18.68
   5  18  -1  118.04   13.73
  18  -5   1  109.43   15.41
   5  18   1  125.64   12.37
 -18   5  -1  132.59   17.08
   5  18   1  138.17   15.07
  -5 -18  -1  114.89   15.20
  18  -5  -1  169.44   17.67
   5  18   1  159.85   17.02
   5  18  -1  138.72   16.48
  18  -5   1   89.94   16.48
  -5 -18   1  116.03   13.38
  -5 -18  -1  118.04   16.90
  -5 -18  -1  147.22   14.42
 -18   5   1  128.20   15.95
  -5 -18   1  112.24   16.66
 -18   5  -3    1.84   19.98
 -18   5  -3   16.64   15.33
  -5 -18   3   16.67    8.75
  18  -5   3    1.32   15.36
 -18   5  -3   26.10   15.17
   5  18   3   33.31   14.07
  -5 -18  -3   34.59   15.28
  18  -5  -3    2.08   15.59
  18  -5  -3   41.17   13.08
   5  18   3    2.26   15.79
 -18   5  -3   36.34   13.87
   5  18  -3   16.43    9.57
 -18   5   3   28.19   15.82
   5  18  -3   33.52   14.18
  -5 -18  -3   34.02   16.03
  -5 -18   3   36.99   13.30
 -18   5   3   10.26    9.31
  18  -5   3    4.18   14.23
  -5 -18   3   38.56   16.03
  18  -5   5   14.89   17.85
  -5 -18  -5  -24.42   15.93
  -5 -18   5   -3.70   17.55
 -18   5  -5    9.67   13.12
 -18   5  -5   13.37   22.51
 -18   5  -5  -10.28   19.00
  -5 -18   5   12.70   14.16
   5  18   5  -10.58   17.89
  18  -5   5    9.49   18.54
  18  -5  -5   -0.79   16.80
  -5 -18  -5  -13.32   18.33
  18  -5  -5   12.38   15.72
   5  18   5   -0.82   16.98
   5  18   5   -6.24   19.07
 -18   5   5   -2.53   18.82
  -5 -18  -5   17.34   17.44
   5  18  -5  -17.58   14.17
 -18   4   0  127.62   15.66
  -4 -18   0  145.97   14.85
 -18   4   0  142.17   18.60
  18  -4   0  118.67   14.76
 -18   4   0  157.72   17.98
   4  18   0  165.97   14.96
   4  18   0  152.14   10.91
  -4 -18   0  164.50   15.78
  18  -4   0  152.57   17.28
   4  18   0  165.01   16.83
  -4 -18   0  138.90   17.18
 -18   4   2  -12.27   12.39
   4  18  -2   -2.63   10.12
 -18   4  -2    6.51   17.34
  -4 -18   2   -8.09   12.05
  18  -4   2    6.75   13.56
  -4 -18  -2   13.16   12.41
  -4 -18   2   12.77    9.89
   4  18   2   13.01   12.40
  -4 -18  -2    4.05   13.92
  18  -4  -2   23.11   15.28
  18  -4  -2    6.99   11.18
   4  18   2    4.25   12.18
 -18   4  -2   17.06   13.68
   4  18   2   -8.99   14.59
   4  18  -2   22.05   13.94
 -18   4   2   -1.85   13.77
  -4 -18  -2   15.22   14.08
  -4 -18   2   -2.54   15.13
  18  -4   4   -4.48   15.83
 -18   4  -4   21.29   16.93
  -4 -18   4   -7.93   17.33
  -4 -18   4   14.15   13.68
  18  -4   4   15.55   16.90
   4  18   4   13.75   15.52
  18  -4  -4  -13.54   15.53
   4  18  -4    0.21    6.86
  -4 -18  -4   21.64   16.47
  18  -4  -4    6.55   13.78
   4  18   4   24.90   17.45
   4  18   4    8.18   16.23
   4  18   4   14.17   17.33
 -18   4   4   36.22   17.51
 -18   4   4    6.36    4.08
  -4 -18  -4   16.95   16.10
   4  18  -4   16.70   13.83
  -4 -18  -4   -9.36   14.89
 -18   4  -4    7.50   13.35
  -4 -18   6   10.97   18.17
  -4 -18   6   19.85   16.08
  18  -4  -6  -22.23   16.24
 -18   4   6    1.83   20.32
  -4 -18  -6   42.97   17.76
 -18   3   1    8.38   13.94
 -18   3  -1   25.72   12.69
  18  -3   1   22.14   12.13
   3  18  -1   21.00   11.21
  -3 -18  -1   14.40   11.50
   3  18   1   27.17   10.16
  -3 -18   1   16.26   10.98
 -18   3  -1   30.63   14.08
  -3 -18  -1   26.78   13.24
  18  -3  -1    1.83   10.46
  18  -3  -1    9.01   14.17
   3  18   1    3.22   12.20
 -18   3  -1    4.28   16.04
   3  18  -1    7.96   13.42
  18  -3   1    8.60   14.52
 -18   3   1    3.41   12.65
  -3 -18   1   25.40   14.92
   3  18  -1   13.76    3.57
  -3 -18   3   59.24   17.36
 -18   3  -3   40.84   15.16
 -18   3  -3   64.62   19.66
  18  -3   3   51.57   15.17
   3  18   3   52.09   14.67
  18  -3  -3   32.85   16.13
  -3 -18  -3   53.92   16.14
  18  -3  -3   48.68   12.87
  -3 -18   3   38.10   13.66
  -3 -18   3   51.97    8.92
   3  18   3   67.80   15.61
 -18   3   3   69.69   15.81
  -3 -18  -3   74.91   15.74
   3  18  -3   90.72   15.22
   3  18  -3   65.06    9.40
 -18   3   3   40.73    9.15
  18  -3   5   10.70   17.07
  -3 -18  -5   21.80   16.39
  -3 -18   5   20.45   18.72
 -18   3  -5   47.57   22.90
 -18   3  -5   16.83   18.92
  -3 -18   5    0.63   14.57
  18  -3  -5   51.45   16.84
  18  -3   5    1.67   17.97
   3  18   5    7.37   17.47
 -18   3  -5   41.24   13.96
  18  -3  -5   32.26   14.64
  -3 -18  -5   -1.68   18.08
   3  18   5    1.80   19.42
   3  18   5    9.69   16.58
 -18   3   5   55.36   19.10
  -3 -18  -5   45.72   17.10
   3  18  -5   13.25   14.22
  -3 -18   7   24.83   17.72
 -18   2   0   24.69   13.16
 -18   2   0   19.49   15.19
  18  -2   0   45.93   11.01
 -18   2   0   30.75   14.89
   2  18   0   37.39    8.50
   2  18   0   34.20   11.38
  18  -2   0   41.90   14.80
   2  18   0   34.18   13.50
  -2 -18   0   27.33   11.24
  -2 -18   0   41.74   15.32
  -2 -18  -2   28.27   12.66
 -18   2   2   50.15   12.03
 -18   2  -2   14.75   13.19
  -2 -18   2   38.81   13.14
 -18   2  -2   32.98   17.36
 -18   2  -2   52.96   13.30
  18  -2   2   33.52   13.28
   2  18  -2   32.24    9.94
   2  18   2   18.37   12.38
  -2 -18  -2   22.02   14.19
  18  -2  -2   33.98   10.50
  18  -2  -2   23.48   14.32
 -18   2  -2   13.97   14.22
   2  18   2   42.69   14.61
   2  18   2   37.65   13.74
   2  18  -2   46.46   14.00
 -18   2   2   40.40   13.74
  -2 -18  -2   52.75   14.83
  18  -2   2   33.89   14.57
  -2 -18   2   38.45    9.82
  -2 -18   2   41.10   15.47
 -18   2  -4   -7.71   13.29
  -2 -18   4    7.55   18.01
 -18   2  -4    2.86   16.02
  -2 -18   4  -10.14   14.12
  18  -2   4   -2.13   15.52
   2  18   4    1.39   15.42
  18  -2  -4  -12.11   15.37
  18  -2  -4    8.87   12.41
  -2 -18  -4   -1.51   16.39
   2  18  -4    8.76    5.24
   2  18   4    7.58   15.80
  -2 -18   4    9.86    4.98
 -18   2   4   -2.79   16.23
   2  18   4    5.10   14.69
  -2 -18  -4   12.74   15.46
   2  18  -4  -10.21   14.48
  -2 -18  -4   33.47   15.11
  -2 -18   6   44.37   19.27
  -2 -18   6    5.14   16.61
 -18   2  -6    7.77   13.14
 -18   2   6  -11.35   19.93
  -2 -18  -6  -10.01   17.39
   2  18  -6   14.98   15.28
 -18   1  -1   -0.55   12.28
 -18   1   1   15.78   13.12
  -1 -18   1   -9.01   10.16
  18  -1   1    0.42   11.45
 -18   1  -1   10.49   15.78
 -18   1   1  -11.71   14.33
  -1 -18  -1    4.75   11.29
   1  18   1   -1.82   10.11
  -1 -18  -1   -2.22   13.17
 -18   1  -1    7.71   13.37
  18  -1  -1  -11.44   14.01
   1  18  -1    5.73   10.66
   1  18  -1   10.51   13.41
  18  -1   1  -18.33   13.93
   1  18   1   -5.14   11.26
   1  18  -1   -8.90    6.04
  18  -1  -1   -7.39    9.46
 -18   1   1   22.70   12.85
  -1 -18   1   -4.54   15.26
  18  -1   3   27.24   13.84
  -1 -18   3   12.86   16.52
   1  18  -3   21.34    8.22
 -18   1  -3   43.25   14.79
 -18   1  -3  -13.53   18.16
  -1 -18   3   26.10   14.26
  18  -1   3   19.97   14.22
   1  18   3   34.46   14.33
  18  -1  -3   -6.19   14.39
  18  -1  -3   19.53   10.74
  -1 -18  -3   36.68   15.24
  -1 -18   3   13.52    4.48
   1  18   3   11.92   14.62
 -18   1   3   36.43   15.45
  -1 -18  -3    3.51   14.66
   1  18  -3   46.53   14.56
 -18   1  -3   19.74   13.44
   1  18   3   14.93   13.93
 -18   1   3   17.39    7.54
  -1 -18   5   28.22   19.55
 -18   1  -5   -5.78   18.76
 -18   1  -5   12.23   13.38
  -1 -18   5   12.93   15.15
  18  -1  -5    8.43   15.33
  18  -1   5   -0.81   17.44
   1  18   5   14.84   17.57
  18  -1  -5   -3.33   12.67
  -1 -18  -5   12.79   18.52
   1  18   5   12.67   20.10
   1  18   5   16.60   17.02
 -18   1  -5   -4.40   22.17
 -18   1   5   29.60   18.33
   1  18   5  -31.76   17.30
  -1 -18  -5   16.32   17.04
   1  18  -5    9.99   15.78
  -1 -18   7  -13.64   18.47
  -1 -18  -7    0.86   17.15
 -18   0   0   75.23   13.83
   0 -18   0   71.73   12.24
 -18   0   0   88.63   15.73
  18   0   0   61.61   10.81
   0  18   0   82.18   10.37
  18   0   0   85.31   15.21
   0  18   0   92.52   14.99
   0  18   0   93.11   12.17
   0 -18   2   24.80   16.36
   0  18   2   15.53   12.49
 -18   0   2   17.87   11.65
 -18   0  -2    4.60   11.83
 -18   0  -2   20.65   17.63
   0  18  -2   16.64    5.35
 -18   0  -2   16.31   12.76
  18   0   2   24.55   12.26
 -18   0   2   -1.44   15.93
   0 -18   2   17.44    5.83
   0  18   2    7.72   12.39
  18   0  -2   19.95    9.39
   0 -18  -2   14.21   14.61
  18   0  -2   16.47   13.85
   0  18  -2   18.36    9.37
   0  18   2   18.24   14.02
 -18   0  -2    7.75   14.86
   0 -18   2   20.83   13.77
   0  18  -2   -1.90   13.94
 -18   0   2   14.71   13.19
   0 -18  -2   22.54   14.66
   0 -18  -2  -10.57   12.72
  18   0   2   21.93   14.51
  18   0   4   30.56   15.38
   0 -18   4   -1.60   18.60
 -18   0  -4   12.90   13.47
 -18   0  -4   -9.08   16.33
  18   0   4  -40.19   16.02
  18   0   4   25.51   14.89
  18   0  -4    4.43   14.28
  18   0  -4   14.95   10.57
   0  18   4   -7.80   15.48
   0 -18  -4   37.68   17.38
   0 -18   4   14.24   15.33
   0  18  -4    1.62    4.29
   0  18   4   21.26   15.89
 -18   0   4   -7.82   16.11
   0 -18   4   -1.40    8.19
   0 -18  -4   21.07   15.77
   0  18  -4    5.36   14.99
   0  18   4  -10.05   14.98
 -18   0  -6   26.39   20.68
   0 -18   6  -14.15   17.43
  18   0   6    5.06   16.00
  18   0   6  -39.40   20.14
 -18   0  -6   -3.14   13.28
 -18   0   6   -5.79   19.23
   0 -18  -6   -4.82   16.63
   0  18  -6    4.95   15.64
   0 -18   6  -24.18   20.12
  -1  18   1   19.78   11.88
 -18  -1  -1   13.39   12.13
 -18  -1   1    4.00   13.12
  18   1  -1    7.43    8.29
 -18  -1  -1   12.48   15.93
  18   1   1    4.34    9.98
   1 -18   1    4.16    7.92
 -18  -1   1   10.08   14.49
   1 -18  -1   15.27   14.51
  -1  18   1   16.44   10.69
  18   1  -1   18.46   14.38
 -18  -1  -1   19.39   13.66
  -1  18   1    6.92   14.09
  -1  18  -1   31.98   13.54
  18   1   1   11.99   13.87
  -1  18  -1    9.97    7.59
   1 -18  -1   18.32   14.97
 -18  -1   1   35.27   12.71
   1 -18   1    7.36   14.97
  -1  18  -1   18.79    9.94
  18   1   3   88.17   15.61
 -18  -1   3   66.76    8.30
   1 -18   3   91.32   18.22
  -1  18   3   49.03   14.57
 -18  -1  -3   76.63   15.03
   1 -18   3   96.07   15.87
 -18  -1  -3   57.25   19.28
  18   1   3   44.99   14.32
  18   1   3   66.62   15.96
  -1  18  -3   70.47    9.18
 -18  -1   3   51.01   17.68
  18   1  -3   44.52   10.04
  -1  18   3   92.80   15.62
  18   1  -3   77.76   15.10
   1 -18  -3  102.16   17.13
   1 -18   3   76.44    9.19
 -18  -1   3   50.77    7.24
  -1  18   3   70.57   15.31
 -18  -1   3   59.45   14.71
   1 -18  -3   81.86   15.85
  -1  18  -3   63.71   16.02
 -18  -1  -3   85.44   14.71
   1 -18   5   13.19   19.32
 -18  -1  -5   27.68   18.85
 -18  -1  -5   20.80   23.44
   1 -18   5   29.97   16.65
  18   1  -5    6.59   14.85
  18   1  -5   15.83   11.15
 -18  -1  -5   39.94   14.22
  18   1   5   25.47   17.83
  18   1   5    8.61   16.15
  -1  18   5   50.24   18.59
   1 -18  -5   10.38   18.02
  -1  18   5   -7.62   16.51
 -18  -1   5   12.82   17.17
   1 -18  -5   20.99   16.21
   1 -18   5   22.60   10.23
  -1  18  -5    7.30   16.50
  -1  18   5   -2.35   15.82
 -18  -1   7   -4.48   20.33
 -18  -2   0   -5.54   12.40
  18   2   0   13.52    8.25
  -2  18   0   -5.77   10.75
   2 -18   0  -15.87    9.42
  -2  18   0   17.41   10.08
  18   2   0   -7.58   14.06
   2 -18   2   33.23   16.83
  -2  18  -2   34.72    7.77
  18   2  -2   41.80    7.31
 -18  -2   2   33.22   11.27
   2 -18   2   48.51   14.91
 -18  -2  -2   54.31   12.49
 -18  -2  -2   36.11   12.93
  -2  18   2   45.64   12.50
  18   2   2   33.60   11.81
  18   2   2   39.03   14.51
 -18  -2   2   44.58   15.96
  18   2  -2   45.36    7.67
  -2  18   2   29.69   13.03
   2 -18   2   58.37    9.14
   2 -18  -2   47.00   14.98
  18   2  -2   37.82   13.30
  -2  18   2   21.29   14.63
  -2  18  -2   50.93   15.02
 -18  -2   2   37.42   12.78
 -18  -2  -2   23.44   13.97
   2 -18  -2   33.59   14.67
  -2  18  -2   50.97    9.65
  18   2   2   55.38   14.46
  18   2   4    5.05   15.10
   2 -18   4  -10.98   19.54
 -18  -2  -4    3.19   13.68
 -18  -2  -4   -2.74   15.92
   2 -18   4  -11.80   16.06
  -2  18   4    5.03   14.83
  18   2   4    3.95   14.83
  18   2  -4  -11.37    9.23
  18   2  -4  -14.18   14.08
 -18  -2   4   17.75   16.28
  18   2   4    5.68   15.48
  -2  18   4  -26.21   16.24
   2 -18  -4    5.50   17.12
  -2  18   4   -6.44   15.68
 -18  -2   4   -6.70   14.66
   2 -18   4   -1.54    9.82
   2 -18  -4   11.21   15.14
  -2  18  -4   -4.37   16.44
  -2  18  -4    1.02    4.15
   2 -18   6   15.22   20.72
 -18  -2  -6   11.24   19.80
   2 -18   6   10.01   17.96
 -18  -2   6    7.10   13.74
  18   2   6  -37.08   19.69
  18   2   6   39.47   16.78
 -18  -2   6    0.78   18.21
 -18  -2  -6   16.53   13.43
   2 -18  -6   38.42   16.03
  -2  18  -6   29.37   17.16
 -18  -3   1   14.04   11.75
 -18  -3  -1    9.05    9.29
 -18  -3  -1   11.44   11.96
  18   3  -1   10.73    5.79
   3 -18  -1    7.96   11.13
  18   3   1    9.96    9.49
  -3  18  -1    8.94    9.57
   3 -18   1   10.54    9.39
  -3  18   1   -3.09   11.72
 -18  -3   1    5.26   14.05
   3 -18  -1    3.72   14.21
  -3  18   1   14.57   11.70
  18   3  -1   10.76   13.28
 -18  -3  -1  -10.52   14.16
  -3  18   1   -3.16   14.01
  -3  18  -1    8.99   13.95
  18   3   1    7.19   13.10
  -3  18  -1    4.13    8.86
   3 -18  -1   15.83   13.68
   3 -18   1    9.03   15.92
  18   3   3   22.56   14.17
   3 -18   3   32.82   18.68
 -18  -3  -3   10.81   14.21
 -18  -3   3   20.63    7.88
   3 -18   3   50.52   15.84
 -18  -3  -3   35.37   13.99
  18   3   3   41.60   13.88
  18   3  -3   17.76    6.43
  -3  18   3   13.15   13.42
  18   3   3   20.33   15.36
 -18  -3   3   46.77   16.09
  18   3  -3   29.21   13.96
  -3  18   3   26.02   15.00
   3 -18  -3   41.53   16.81
   3 -18   3   32.46   10.33
 -18  -3   3   17.66    6.43
  -3  18   3   22.62   15.17
  -3  18  -3   25.81    8.68
 -18  -3   3   19.63   13.61
   3 -18  -3    8.75   14.46
  -3  18  -3   33.89   16.30
  18   3   5    8.84   16.28
   3 -18   5  -10.19   20.39
  -3  18   5    2.36   15.97
 -18  -3  -5   23.38   18.23
   3 -18   5  -12.46   17.40
  18   3  -5   17.84   14.56
  18   3   5   31.40   17.03
 -18  -3   5   32.40   15.47
  -3  18   5  -17.97   19.05
 -18  -3  -5   25.12   14.47
  18   3   5   12.19   16.38
  -3  18   5   39.83   16.81
 -18  -3   5   29.32   16.68
   3 -18  -5   30.82   15.72
   3 -18   5   14.72   11.33
  -3  18  -5   11.86   17.82
 -18  -3   7    5.07   19.77
 -18  -4   0    0.48   12.04
  18   4   0    1.64    7.34
   4 -18   0    0.38   10.68
  -4  18   0   18.16   10.58
 -18  -4   0  -11.09   13.00
  -4  18   0    1.16   10.95
  18   4   0  -12.34   13.31
   4 -18   0   27.98   15.63
   4 -18   2   58.02   17.60
  -4  18  -2   59.78    9.22
   4 -18   2   63.96   15.22
 -18  -4  -2   50.95   12.36
 -18  -4   2   94.49   12.38
  -4  18  -2   84.10   10.16
  18   4   2   50.51   11.60
  18   4   2   89.88   15.75
   4 -18  -2  100.97   17.13
 -18  -4   2  100.37   16.06
  -4  18   2   64.43   14.31
  18   4  -2   74.45   13.74
   4 -18   2   67.57   11.10
 -18  -4   2   65.83    8.57
  -4  18   2   57.68   13.76
  -4  18   2   67.70   15.00
  -4  18  -2   74.44   16.01
   4 -18  -2   65.34   15.01
 -18  -4   2   58.67   12.50
 -18  -4  -2   60.16   14.30
  18   4   2  103.42   14.53
  18   4   4  -15.67   15.09
   4 -18   4   28.60   19.53
 -18  -4  -4   -6.76   16.06
   4 -18   4  -11.88   16.56
 -18  -4  -4   -6.62   14.68
  18   4  -4    2.32    7.83
  -4  18  -4    3.51    5.16
  18   4  -4   20.29   13.53
  18   4   4    9.15   15.69
  -4  18   4    3.66   15.26
 -18  -4   4   27.73   15.51
  -4  18   4  -14.26   16.87
  18   4   4   19.51   15.94
  -4  18   4    0.69   15.12
 -18  -4   4   -9.05   14.29
   4 -18   4   -0.38   11.23
   4 -18  -4    8.22   15.48
  -4  18  -4   10.18   17.18
   4 -18   6   -5.05   21.80
 -18  -4  -6    2.79   19.59
   4 -18   6    5.29   18.43
  18   4   6   38.69   19.82
 -18  -4   6   -6.66   14.01
  18   4   6    3.31   17.22
 -18  -4   6   26.22   17.68
 -18  -4  -6   22.21   14.47
   4 -18  -6   -6.56   16.02
  -4  18  -6    8.39   18.58
 -18  -5   1   -2.76   12.06
 -18  -5  -1   12.53    9.09
 -18  -5  -1    2.03   12.01
   5 -18  -1   -1.38   12.02
  18   5   1   -5.93    8.94
   5 -18   1    5.72   11.15
 -18  -5   1   11.24   10.21
  -5  18   1    1.42   12.54
 -18  -5   1   -1.96   13.64
  18   5  -1  -11.50   12.49
  -5  18   1   15.35   13.81
  -5  18  -1    2.40    9.61
  -5  18  -1   33.96   14.24
  18   5   1  -23.49   13.05
  -5  18  -1    0.71   10.04
  -5  18   1    2.15   12.08
   5 -18  -1    8.75   14.48
  18   5   3    8.27   14.35
   5 -18   3  -12.72   18.36
 -18  -5   3   -2.75    8.94
   5 -18   3    2.80   16.11
  -5  18  -3   -4.00    8.41
 -18  -5  -3   -1.63   13.83
 -18  -5  -3   17.79   13.90
  18   5  -3    1.33    3.12
  18   5   3   -7.95   13.02
  18   5  -3    2.50   12.69
  18   5   3    8.84   15.23
  -5  18   3    6.61   15.37
 -18  -5   3   -8.20   14.56
   5 -18   3   -7.66   11.74
  -5  18   3   -0.68   13.71
  -5  18   3   -7.93   14.69
 -18  -5   3   26.67    6.97
 -18  -5   3   -0.99   12.78
   5 -18  -3   28.70   14.72
  -5  18  -3   -3.77   16.66
  18   5   5   23.28   16.63
   5 -18   5  -61.83   22.41
 -18  -5  -5   11.93   17.56
   5 -18   5  -12.38   17.47
  -5  18   5  -35.34   17.00
  18   5   5    5.48   16.51
  -5  18   5    7.89   18.93
 -18  -5   5   -7.95   12.89
  18   5   5  -13.72   17.23
 -18  -5  -5    0.69   14.57
  -5  18   5   15.76   15.83
 -18  -5   5   16.62   15.98
   5 -18   5   15.73   12.99
   5 -18  -5   -4.17   15.20
  -5  18  -5   18.76   19.31
  18   5   7   32.24   19.07
   6 -18   0   15.07   15.06
 -18  -6   0   11.10   11.62
  18   6   0   12.10   13.49
  18   6   0    1.39    5.13
   6 -18   0   -2.19   12.07
 -18  -6   0  -10.83   11.59
  -6  18   0    9.61   12.25
  18   6   0  -11.75   12.23
  -6  18   0   26.91   14.54
  -6  18   0   -2.90   11.30
  18   6   2   24.58   13.37
  -6  18   2   64.84   13.85
   6 -18   2   24.34   19.24
 -18  -6  -2   16.36   13.36
  -6  18  -2   31.98    9.84
   6 -18   2   59.80   16.03
 -18  -6  -2   35.63   11.80
   6 -18  -2   51.86   12.90
  18   6   2   17.62   11.38
  18   6   2   41.82   15.55
   6 -18  -2   56.90   16.95
  18   6  -2   19.27   12.28
  -6  18   2   20.10   14.07
   6 -18   2   37.01   12.22
 -18  -6   2   22.98   14.38
 -18  -6   2   25.47    8.35
  -6  18   2   51.62   14.64
  -6  18  -2   51.99   15.44
   6 -18  -2   12.15   15.65
  -6  18  -2   21.00    9.82
 -18  -6   2   30.50   12.04
  18   6   4   -4.97   15.62
   6 -18   4    0.94   20.38
   6 -18   4   18.90   17.96
 -18  -6  -4    5.99   15.43
  18   6  -4  -24.15   12.98
 -18  -6  -4  -17.86   14.81
  18   6   4  -24.24   15.38
  -6  18   4   -2.35   17.85
  18   6   4   15.79   16.76
 -18  -6   4   31.09   14.30
  -6  18   4   21.81   16.00
  -6  18   4   -5.42   15.04
 -18  -6   4   19.81   13.79
   6 -18   4    1.79   12.29
   6 -18  -4   16.19   15.11
  -6  18  -4    0.21    6.70
  -6  18  -4    5.86   18.65
   6 -18   6   54.54   22.20
 -18  -6  -6   33.14   19.46
  18   6   6   16.71   19.94
  18   6   6  -15.77   18.01
  -6  18   6   28.66   16.89
 -18  -6   6    8.10   16.32
 -18  -6  -6   -4.37   14.99
   6 -18  -6   25.85   15.85
  -6  18  -6  -17.17   19.80
 -18  -7   1   67.94   12.42
 -18  -7  -1   65.70    9.76
   7 -18  -1   59.29   13.46
  18   7   1   70.04    9.73
  -7  18   1   75.16   14.19
  -7  18  -1   74.99   11.87
   7 -18   1   88.59   13.68
 -18  -7  -1   90.39   14.46
 -18  -7   1   86.20   12.19
  18   7  -1   93.74   13.73
  -7  18   1   63.15   14.60
 -18  -7   1   75.82   15.99
  -7  18   1   72.57   15.11
  18   7   1   62.31   13.67
  -7  18  -1   76.08   11.96
   7 -18  -1   40.91   15.86
  -7  18   3   13.41   15.03
  18   7   3   -1.27   13.68
   7 -18   3    0.90   19.57
 -18  -7  -3   -1.07   13.39
 -18  -7  -3    6.84   13.63
  -7  18  -3    4.80   10.68
  18   7   3   -6.94   13.59
  18   7  -3   -7.75   12.23
  18   7   3   26.17   16.61
  -7  18   3   -2.06   16.24
 -18  -7   3   -2.66   14.14
   7 -18   3   11.74   12.57
  -7  18   3   13.15   15.06
 -18  -7   3   12.44    8.13
   7 -18   3   -5.96   16.82
  -7  18  -3   -6.67    8.69
 -18  -7   3   -0.91   11.86
  -7  18  -3  -20.06   17.36
   7 -18  -3  -17.61   15.48
  18   7   5    6.43   17.19
 -18  -7  -5  -38.61   18.17
   7 -18   5   26.17   19.21
  18   7   5   -3.97   17.70
   7 -18  -5   -9.14   18.44
  -7  18   5  -25.48   20.20
  18   7   5   14.56   17.88
 -18  -7   5   14.21   11.95
 -18  -7  -5   24.77   19.91
  -7  18   5    5.76   17.05
   7 -18   5   10.38   21.39
 -18  -7  -5   18.09   14.86
  -7  18   5  -15.44   15.71
 -18  -7   5    5.09   14.41
   7 -18   5   -0.53   13.95
   7 -18  -5   21.03   14.95
  -7  18  -5   -2.70   19.65
   8 -18   0   31.78   18.43
 -18  -8   0   33.34   11.87
  18   8   0   35.47   14.90
   8 -18   0   44.49   13.46
  18   8   0   28.62    4.26
 -18  -8   0   46.65   12.89
  -8  18   0   55.67   13.14
  18   8   0   34.65   12.90
  -8  18   0   52.49   14.89
 -18  -8   0   56.73   14.08
  -8  18   0   57.46   12.67
 -18  -8   2  128.20   13.26
  18   8   2  121.92   15.29
  -8  18  -2   99.22   13.49
   8 -18   2   97.30   19.84
 -18  -8  -2  116.44   16.75
   8 -18   2  166.02   18.14
   8 -18  -2  136.94   15.89
  18   8   2   80.67   13.11
 -18  -8  -2   73.87   12.95
  18   8   2  160.15   18.23
  -8  18   2  121.27   16.92
  18   8  -2  114.51   14.11
  -8  18   2  110.42   16.80
 -18  -8  -2  106.23   16.64
   8 -18   2  104.31   14.66
 -18  -8   2  118.48   11.83
 -18  -8   2  100.74   16.20
  -8  18  -2   87.79   12.36
  -8  18   2  144.91   16.72
  -8  18  -2  111.72   18.66
   8 -18  -2  144.75   18.39
  -8  18   4    2.35   15.84
  18   8   4  -26.33   15.78
   8 -18   4    8.92   21.15
   8 -18   4    1.66   18.85
 -18  -8  -4   12.51   15.16
  18   8  -4    0.46   11.88
  18   8   4    1.33   14.74
 -18  -8  -4   -9.31   15.63
   8 -18  -4   40.37   18.39
  -8  18   4   17.09   18.30
  18   8   4   23.19   17.13
 -18  -8   4    3.33   12.78
  -8  18   4   29.49   16.00
   8 -18   4   14.46   14.09
 -18  -8   4    4.76   11.94
   8 -18  -4  -10.19   15.46
  -8  18  -4   -9.69   19.17
   8 -18   6   48.67   23.06
 -18  -8  -6   32.01   20.40
  18   8   6   27.09   20.00
  18   8   6   -1.85   19.28
 -18  -8  -6   39.19   16.34
  -8  18  -6   44.47   20.63
   9 -18  -1   62.18   17.00
   9 -18   1   27.42   17.05
 -18  -9   1   56.85   11.49
  -9  18   1   34.83   14.11
 -18  -9  -1   44.68    8.97
   9 -18  -1   72.52   14.11
  18   9   1   40.31    8.43
  18   9   1   25.00   15.04
   9 -18   1   35.59   14.05
  -9  18  -1   51.42   12.00
 -18  -9  -1   37.37   14.38
  18   9  -1   44.98   11.92
 -18  -9   1   52.34   12.23
  -9  18   1   36.01   14.90
  -9  18   1   89.50   16.15
   9 -18   1   36.42   16.08
 -18  -9   1   56.57   14.83
  18   9   1   45.28   13.58
  -9  18  -1   38.01   12.91
  18   9   3  -23.25   14.02
   9 -18   3   -7.61   20.42
   9 -18   3  -22.10   18.24
  -9  18  -3   -8.78   11.69
 -18  -9  -3   -9.52   13.49
   9 -18  -3   34.55   15.53
 -18  -9  -3   14.17   14.44
  18   9  -3   16.51   11.34
  18   9   3    1.61   13.50
  -9  18   3   21.59   15.05
   9 -18  -3  -13.45   17.25
  18   9   3  -22.49   16.54
  -9  18   3   -2.90   16.83
 -18  -9  -3    0.81   16.87
   9 -18   3   13.04   14.02
 -18  -9   3   -7.92   14.08
  -9  18   3   10.62   15.11
 -18  -9   3    1.90    8.42
  -9  18  -3    1.68    8.92
  -9  18  -3   14.44   17.70
 -18  -9   3   -1.23   11.32
   9 -18  -3  -31.95   17.17
  18   9   5   16.93   17.01
   9 -18   5   18.55   23.16
   9 -18   5   36.67   19.59
 -18  -9  -5   23.52   17.69
  18   9   5    4.02   17.34
   9 -18  -5    9.34   19.22
  -9  18   5   19.66   20.10
  18   9   5  -11.66   18.79
 -18  -9  -5    5.86   19.05
  -9  18   5   20.64   15.74
 -18  -9   5    5.86   12.16
 -18  -9  -5   18.17   15.56
 -18  -9   5   17.97   13.53
   9 -18   5   -7.69   14.73
  -9  18   5  -27.33   16.89
   9 -18  -5    8.16   15.76
  -9  18  -5   46.06   20.72
  10 -18   0   16.92   17.85
 -18 -10   0    4.56   13.22
 -10  18   0    4.65   12.95
  18  10   0   -0.72   14.99
  10 -18   0    6.24   13.89
 -18 -10   0    5.06   12.74
  18  10   0  -12.69   12.02
 -10  18   0   -8.76   13.90
 -10  18   0   26.65   15.83
  10 -18  -2   82.96   18.32
  18  10   2   76.85   15.03
 -10  18  -2   90.46   14.13
 -18 -10   2   99.74   12.45
 -10  18   2   63.83   16.49
  10 -18   2   65.52   18.48
 -18 -10  -2   89.16   13.06
 -18 -10  -2   92.47   16.41
  10 -18  -2   85.01   15.89
 -10  18  -2  105.66   12.52
  18  10   2   99.32   12.41
  18  10  -2   86.40   12.78
  10 -18  -2  106.54   18.51
  10 -18   2   92.89   15.46
 -18 -10  -2  106.63   17.32
 -10  18   2   96.46   18.03
 -18 -10   2   98.55   12.49
 -10  18   2   87.08   16.40
 -18 -10   2   87.95   15.34
  18  10   4  -10.03   15.59
  10 -18   4    3.14   21.76
  10 -18   4   26.30   19.55
 -18 -10  -4    1.31   15.37
  18  10  -4    6.44   10.94
 -10  18   4   31.18   16.81
  18  10   4   -4.72   15.76
  10 -18  -4   17.26   18.80
 -10  18   4  -25.21   19.05
 -18 -10  -4  -20.19   15.20
  18  10   4  -12.15   18.02
 -10  18   4   21.97   15.43
  10 -18   4    2.34   15.33
 -18 -10   4   14.47   11.63
 -10  18  -4   21.46   20.78
  10 -18  -4   19.40   16.05
  11 -18  -1   35.73   17.67
 -18 -11   1   10.28   14.10
 -11  18  -1    5.92   12.12
  11 -18   1   22.11   18.27
 -18 -11  -1   11.01   14.49
 -18 -11  -1   25.17    8.45
 -18 -11   1   18.20   10.39
  18  11  -1   16.26   15.30
  11 -18  -1    1.87   14.72
 -11  18   1   33.66   14.31
  18  11   1    7.26    8.50
  18  11   1    8.35   15.33
  11 -18   1   33.19   14.81
 -18 -11  -1    9.94   14.41
  18  11  -1   18.18   11.69
 -18 -11   1   16.21   12.64
 -11  18   1   -6.24   14.46
 -11  18   1   11.86   14.82
 -11  18  -1   14.20   16.24
  18  11   1    8.85   12.75
 -11  18  -1  -10.36   12.97
  11 -18  -3   13.86   16.98
 -18 -11   3   34.08    9.90
 -11  18   3   26.81   16.43
  18  11   3    1.26   14.42
  11 -18   3   13.07   21.98
  11 -18   3  -24.19   18.78
 -11  18  -3   26.90   12.84
 -18 -11  -3   -2.64   14.25
  11 -18  -3   43.32   16.32
  18  11  -3   19.13   10.58
  18  11   3    1.06   13.57
 -18 -11  -3   28.00   15.06
  11 -18  -3    4.91   18.14
 -11  18   3   36.18   17.46
  18  11   3   -4.20   17.33
 -18 -11  -3    9.24   17.15
  11 -18   3   12.40   14.88
 -11  18   3   15.38   14.95
 -18 -11   3    7.51    8.56
 -11  18  -3    0.38   10.03
 -18 -11   3   -0.62   13.15
 -11  18  -3    3.59   19.43
  18  11   5    8.15   17.04
  11 -18   5  -24.16   24.06
 -18 -11  -5   -3.91   17.73
  18  11   5    3.26   18.02
  18  11   5    3.75   18.27
 -11  18   5   16.10   15.04
  11 -18   5    0.66   15.81
 -18 -11  -5   -2.38   16.29
 -18 -11   5   -8.92   12.29
  11 -18  -5   -6.89   15.69
 -11  18  -5  -30.10   21.52
  12 -18   0    2.58   19.02
 -18 -12   0    3.36   14.19
  18  12   0   29.08   16.45
  12 -18   0   10.67   14.50
 -18 -12   0    0.60   13.55
  18  12   0   11.57   11.43
 -12  18   0    9.08   13.87
 -12  18   0   -8.28   16.73
 -18 -12   2   29.76    9.93
  12 -18  -2   29.55   18.15
 -18 -12   2   81.17   15.09
  18  12   2   48.01   13.89
 -12  18  -2   24.72   14.24
 -12  18   2   80.15   16.80
 -18 -12  -2   35.40   11.78
  12 -18  -2   63.26   16.09
  18  12   2   35.01   11.11
  18  12  -2   45.21   11.04
  12 -18  -2   30.38   17.97
  12 -18   2   26.18   15.63
 -18 -12  -2   33.07   16.54
 -12  18   2   47.99   17.23
 -18 -12   2   54.06   12.52
 -12  18   2   28.93   15.40
  12 -18  -4  -18.10   17.09
  18  12   4    4.34   16.19
  12 -18   4  -29.84   22.23
  12 -18   4  -16.59   19.75
 -18 -12  -4   16.37   15.74
  12 -18  -4    4.90   17.25
  18  12   4    0.67   15.57
  12 -18  -4   25.66   19.13
 -12  18   4   14.09   19.34
  18  12   4    8.15   17.61
 -18 -12  -4  -11.71   16.31
 -12  18   4  -10.70   14.98
  12 -18   4   20.90   15.93
 -12  18   4   31.97   17.51
 -18 -12   4    7.90   11.83
 -12  18  -4    4.87   20.15
  13 -18  -1    5.94   18.60
  13 -18   1  -15.99   19.16
 -18 -13   1    5.25   14.36
 -18 -13  -1    1.29    8.79
 -18 -13  -1   -6.35   14.59
  18  13  -1   19.07   15.13
  13 -18  -1    1.37   15.42
  13 -18   1    6.97   17.31
  18  13   1   -0.83    9.09
  18  13   1  -16.59   16.46
  13 -18   1   10.21   15.51
  18  13  -1   15.84   10.60
 -18 -13  -1   -2.78   15.01
 -18 -13   1   -0.58   13.28
 -13  18   1   -6.77   15.15
 -13  18   1  -40.74   16.90
 -13  18  -1  -11.54   17.87
  18  13   1    5.78   12.54
 -13  18  -1   -0.61   14.24
  13 -18  -3  -10.76   17.96
 -18 -13   3   19.32   13.59
 -18 -13   3   15.56    8.42
  18  13   3   15.32   14.66
 -13  18  -3   -5.94   13.60
 -18 -13  -3   -8.48   13.16
  13 -18  -3   -7.75   16.71
  13 -18   3  -19.14   22.70
  18  13   3  -14.57   13.66
  13 -18  -3    0.84   18.11
 -18 -13  -3    7.68   15.82
 -13  18   3  -12.28   18.32
  18  13   3    0.87   17.23
 -18 -13  -3   -0.87   17.04
  13 -18   3   32.39   16.17
 -13  18   3    3.33   16.66
 -13  18   3   -4.09   14.90
 -18 -13   3   18.83   10.56
 -13  18  -3  -15.00   20.97
 -18 -13  -5   -4.70   17.81
  18  13   5   -9.02   18.19
  13 -18   5   -2.18   17.08
  14 -18   0  -19.38   20.24
 -18 -14   0   11.05   14.35
  18  14   0  -10.76   14.93
  14 -18   0    8.98   16.32
 -18 -14   0  -17.76   14.42
  18  14   0   -8.94   11.31
 -14  18   0   12.00   15.68
 -14  18   0   31.15   17.34
  14 -18  -2  113.65   20.89
  18  14   2  106.52   15.46
 -14  18  -2  135.50   17.22
 -14  18   2  117.90   18.64
  14 -18   2  120.94   20.66
  14 -18   2  118.01   22.72
 -18 -14  -2   90.74   13.37
  18  14  -2  147.11   18.54
  14 -18  -2   97.32   18.36
  18  14  -2  109.54   12.12
  18  14   2  116.56   13.41
  14 -18  -2   85.75   20.35
  18  14   2  131.93   19.83
  14 -18   2  109.13   18.19
 -18 -14  -2   98.06   18.18
 -14  18   2  103.53   19.03
 -18 -14   2  119.75   16.43
 -18 -14   2  130.19   15.46
 -14  18   2   88.82   17.61
 -14  18  -2  136.73   20.43
  14 -18  -4    5.28   17.68
 -18 -14   4   13.34   12.25
  18  14   4    2.93   16.03
  14 -18   4  -31.34   22.90
 -18 -14  -4    1.99   15.72
  14 -18  -4   -7.77   17.59
  18  14   4   10.02   15.10
  14 -18  -4  -35.31   19.69
 -14  18   4   17.62   19.28
  18  14   4  -32.19   18.73
 -14  18   4  -23.67   15.64
  14 -18   4    9.45   17.32
 -18 -14  -4  -15.58   16.41
  15 -18  -1    3.60   19.09
  15 -18   1    4.99   21.15
  15 -18   1   -3.27   18.35
 -18 -15  -1    1.91    8.86
 -18 -15   1  -16.83   14.88
  18  15  -1  -12.20   15.55
 -18 -15  -1   -1.46   15.35
  15 -18  -1   -9.67   16.33
  15 -18   1   -2.12   17.23
  18  15   1  -21.34   16.22
  18  15  -1   -6.18    9.84
 -18 -15  -1  -31.91   15.74
 -18 -15   1  -15.27   14.60
 -15  18   1    6.62   16.67
 -15  18   1    6.15   17.22
 -15  18  -1    2.62   18.93
  18  15   1    3.77   12.30
 -15  18  -1   10.09   15.39
  15 -18  -3   -3.28   18.25
 -15  18   3   15.82   17.89
  18  15   3  -18.13   15.52
 -18 -15   3   28.95   13.59
 -15  18  -3   17.23   15.10
 -18 -15  -3   23.27   13.61
  15 -18  -3   24.02   17.23
  18  15   3   17.78   13.07
  15 -18  -3   -9.60   19.01
 -18 -15  -3  -14.49   18.33
 -15  18   3   18.25   18.63
 -18 -15  -3   27.20   16.49
  15 -18   3   -2.20   17.57
 -15  18   3   15.31   15.86
 -18 -15   3   19.10   12.52
 -18 -15  -5    3.97   18.65
  18  15   5  -22.98   18.49
  15 -18   5   -5.55   17.98
  16 -18   0    1.96   20.49
 -18 -16   0   -9.21   15.87
  16 -18   0  -26.46   17.61
  18  16   0   12.83   16.08
 -18 -16   0    7.90   15.51
  18  16   0   -5.45   10.71
 -16  18   0  -15.97   16.25
 -16  18   0   28.76   18.23
  18  16   2   57.65   14.64
  16 -18  -2   72.35   20.72
 -16  18  -2   41.65   16.03
  16 -18   2   86.90   22.91
 -18 -16   2   58.45   14.98
 -18 -16  -2   51.68   12.18
  18  16  -2   48.50   17.18
  16 -18   2   24.01   20.34
  16 -18  -2   41.44   17.88
  18  16   2   44.95   12.54
  16 -18  -2   75.33   19.70
 -18 -16  -2   75.72   17.16
  16 -18   2   69.61   18.27
  18  16   2   60.26   19.16
 -18 -16  -2   90.11   19.36
 -16  18   2   54.96   18.77
 -18 -16   2   55.00   14.85
 -16  18   2   63.20   17.07
 -16  18  -2   64.40   20.43
  16 -18  -4   30.07   17.92
  18  16   4  -12.68   16.55
 -18 -16   4   -6.01   12.57
 -18 -16  -4   -4.03   16.08
  18  16   4  -10.02   15.53
 -16  18   4   15.68   15.93
  16 -18   4   29.51   17.96
 -17  18  -1   -8.88   15.94
  17 -18  -1  -26.79   21.15
  17 -18   1   10.54   22.12
  17 -18   1    1.72   18.99
 -18 -17   1    8.25   15.04
  17 -18  -1   25.26   18.61
  18  17  -1  -19.77   16.65
 -18 -17  -1   19.66   15.62
  17 -18   1    5.42   18.04
  18  17   1  -19.79   17.21
 -18 -17  -1  -23.96   16.63
 -18 -17   1    3.50   15.21
 -17  18   1   11.87   17.29
 -17  18   1   -4.82   17.95
 -17  18  -1  -16.45   20.44
  18  17   1   -0.92   11.91
  17 -18  -3   11.09   18.96
  18  17   3    7.90   14.90
 -17  18  -3   21.24   15.72
 -18 -17  -3   26.09   14.15
 -18 -17   3    3.16   13.84
  17 -18  -3   44.02   19.72
  17 -18   3   10.45   18.37
 -17  18   3   32.19   20.34
 -17  18   3  -17.84   16.15
 -18 -17   3   43.28   14.90
 -18 -17  -5  -36.94   18.48
  18  17   5  -18.94   17.90
  18 -18   0  -15.46   21.47
  18 -18   0  -25.23   19.15
  18 -18   0    9.76   18.04
 -18 -18   0   -0.73   15.01
  18  18   0    9.21   17.30
 -18 -18   0   31.82   16.78
 -18  18   0   22.15   18.50
 -18  18   0   -0.79   16.98
  18  18   2   18.27   14.67
 -18  18  -2   70.26   17.74
  18 -18  -2   31.32   20.35
  18 -18   2   28.66   22.82
  18 -18   2   54.11   20.99
  18  18  -2   23.31   16.43
  18 -18  -2   66.14   18.90
 -18 -18   2   16.01   14.49
  18 -18  -2   30.58   20.18
  18 -18   2   37.73   19.47
  18  18   2   25.18   18.88
 -18 -18  -2   20.65   18.69
 -18 -18  -2   20.32   17.12
 -18  18   2   42.84   19.52
 -18 -18   2   27.67   15.87
 -18  18   2    4.58   16.65
 -18  18  -2    2.98   21.67
  18  18   4  -23.57   17.00
 -18  18  -4   15.70   16.48
  18 -18   4   17.38   19.28
 -19  18  -1  -19.35   17.53
  19 -18  -1   39.02   21.69
  19 -18   1   12.24   22.15
  19 -18   1   30.66   19.48
  19 -18  -1  -14.06   19.98
  18  19  -1   -3.31   16.70
 -18 -19   1    7.09   14.74
  19 -18   1   14.36   19.11
  18  19   1   37.14   18.50
 -18 -19  -1  -12.56   16.22
 -18 -19  -1   31.04   17.76
 -18 -19   1   16.06   16.76
 -19  18   1   -2.55   17.84
 -19  18   1   14.47   18.59
 -19  18  -1   29.72   20.51
  19 -18  -3   -8.80   19.46
  18  19   3    6.03   16.58
 -19  18  -3   22.51   17.25
 -19  18  -3  -17.24   15.01
 -18 -19   3   -0.64   13.98
  19 -18   3   22.02   19.44
 -19  18   3    2.20   16.49
  19 -17   0   -9.18   18.70
  19 -17   0   -9.17   21.68
  19 -17   0   42.35   18.33
  17  19   0   21.57   17.03
 -17 -19   0  -19.32   14.95
 -17 -19   0    3.18   16.77
 -19  17   0  -27.39   19.71
 -19  17   0    4.82   17.51
  17  19   2   -2.20   14.05
 -19  17  -2   22.07   17.14
  19 -17  -2   22.32   19.32
  19 -17   2   83.92   21.65
  17  19  -2   20.56   17.05
  19 -17  -2  -18.63   18.50
  19 -17   2   19.40   22.83
 -17 -19   2   13.49   13.88
  19 -17  -2   25.47   19.25
  19 -17   2   -5.91   19.20
 -17 -19  -2   -7.30   19.07
  17  19   2   16.78   18.94
 -19  17   2   12.41   18.78
 -17 -19   2   64.57   16.59
 -19  17   2   32.66   17.04
 -17 -19  -2   46.58   16.92
 -19  17  -2   62.99   21.46
  17  19   4   11.23   16.99
 -17 -19  -4    1.40   16.44
 -19  16  -1    5.46   17.01
  16  19   1   32.50   12.18
  19 -16  -1   50.23   20.61
  19 -16   1   27.59   19.13
 -16 -19  -1   30.78   10.91
  19 -16  -1   43.64   18.35
  19 -16   1  -10.45   21.52
  16  19  -1    1.51   16.10
  19 -16   1   13.82   18.07
 -16 -19   1   23.43   14.51
  16  19   1  -11.91   17.58
 -16 -19  -1   48.04   17.78
 -16 -19  -1    5.14   15.24
 -16 -19   1   -2.20   15.95
 -19  16   1   32.71   17.02
 -19  16   1    7.92   18.00
 -19  16  -1   -2.73   19.62
  19 -16  -3  -15.60   18.18
  16  19   3    2.51   14.43
 -19  16  -3   12.65   16.72
 -16 -19  -3   23.59   14.68
  16  19  -3   20.50   15.58
 -19  16  -3   -0.70   14.77
  19 -16  -3  -16.08   19.47
 -16 -19   3    4.58   13.00
  16  19  -3   22.49   13.96
  19 -16   3   42.71   19.31
 -19  16   3   39.69   15.28
 -16 -19   3    9.02   15.22
 -16 -19  -5   -8.26   18.11
  16  19   5    5.10   17.91
  19 -15   0   13.84   17.78
  19 -15   0  -18.84   19.91
 -15 -19   0  -13.19    9.33
  19 -15   0   27.84   18.10
  15  19   0   47.10   16.44
 -15 -19   0   -0.66   13.88
 -15 -19   0  -20.63   16.62
 -19  15   0   -6.96   16.55
 -19  15   0   -4.99   18.25
 -19  15  -2   18.21   20.94
 -19  15  -2   -2.30   16.13
  19 -15  -2   16.11   17.63
  15  19   2    9.20   12.48
  19 -15   2   -0.86   18.63
 -15 -19  -2   -0.98   12.45
  19 -15  -2    5.09   18.02
  15  19  -2   21.52   15.26
  19 -15  -2   17.64   18.47
  19 -15   2   16.24   20.60
  15  19  -2   37.44   14.91
 -15 -19   2   28.59   13.07
  19 -15   2   32.68   18.64
 -15 -19  -2   -6.99   17.36
 -19  15   2   -1.70   18.30
 -15 -19   2   -6.04   15.20
  15  19   2    1.65   17.35
 -19  15   2    0.68   16.28
 -15 -19  -2   12.15   15.32
  15  19   4   13.58   15.46
 -15 -19  -4   46.20   17.12
  19 -15  -4   -2.54   18.65
  15  19   4  -14.38   16.36
  19 -15   4   -5.24   18.90
 -19  14  -1    4.37   19.84
 -19  14  -1   -6.02   16.28
  14  19   1   -1.52   11.11
  19 -14  -1   -2.51   17.95
 -14 -19   1    4.34    5.85
  19 -14   1   16.22   17.74
  19 -14   1   31.47   20.89
 -14 -19  -1   10.91   11.35
 -14 -19   1    0.92    7.63
  19 -14  -1   -1.61   17.73
  14  19  -1    0.70   15.36
  14  19  -1   -5.58   14.60
  19 -14   1   14.90   17.96
 -14 -19   1  -19.70   13.18
 -14 -19  -1   31.03   16.37
 -14 -19   1  -14.82   16.23
 -19  14   1    9.40   16.48
  14  19   1  -11.22   15.81
 -14 -19  -1    8.25   14.30
 -19  14   1   24.27   17.05
 -19  14  -3   46.94   21.99
  19 -14  -3  -19.24   15.94
 -19  14  -3   15.50   16.05
  19 -14   3    5.36   19.47
  14  19   3   10.09   14.17
 -14 -19  -3  -17.63   14.49
  14  19  -3   11.77   14.33
 -19  14  -3   -4.80   15.45
  19 -14  -3   16.21   17.29
  14  19  -3   -3.02   14.31
 -14 -19   3   -8.17   11.67
 -14 -19  -3   14.75   18.57
 -19  14   3   10.72   18.63
  19 -14   3  -20.72   18.60
 -19  14   3    5.91   14.11
 -14 -19   3  -16.73   15.38
  14  19   3   -6.03   17.00
 -14 -19  -5    3.32   18.04
  14  19   5   15.61   17.97
  19 -13   0   -4.93   15.91
  19 -13   0   -3.51   18.66
 -13 -19   0  -11.85   10.45
  19 -13   0   -2.29   17.00
  13  19   0  -21.55   15.48
 -13 -19   0   19.88   15.62
 -13 -19   0    2.47   13.41
  13  19   0    5.15    7.50
 -19  13   0   -4.46   16.01
 -19  13   0  -24.29   18.62
 -19  13  -2   16.66   20.43
 -13 -19  -2    2.16   15.20
 -19  13  -2   11.90   15.77
  19 -13  -2  -19.56   17.75
  19 -13   2   -0.80   18.19
 -13 -19   2   14.61    6.14
  19 -13   2   -9.29   20.59
  13  19   2    5.23   12.19
 -19  13  -2   16.35   15.76
 -13 -19  -2   19.66   12.77
  19 -13  -2   -5.77   16.90
 -13 -19   2    8.77    7.96
  13  19  -2    8.80   14.16
  19 -13  -2   -0.73   17.08
  13  19  -2   33.12   14.70
  19 -13   2    3.15   17.56
 -13 -19  -2    1.67   16.95
 -13 -19   2   21.21   11.64
 -19  13   2    8.12   17.49
 -13 -19   2   -0.66   15.21
 -19  13   2   -8.15   15.19
  13  19   2   10.13   15.98
  19 -13   4    4.66   19.42
 -13 -19  -4    3.62   16.49
  19 -13  -4  -19.58   17.39
  13  19   4   14.05   16.60
 -19  13  -4   -0.63   13.77
  19 -13   4   11.05   19.31
 -13 -19   4   12.71   16.48
 -19  12  -1    2.51   19.40
 -19  12  -1   -3.62   15.19
 -12 -19  -1    9.76   13.54
 -12 -19   1   11.61    9.09
  12  19   1  -10.20   10.32
  19 -12   1   -9.26   16.22
  19 -12   1   -9.28   19.42
 -12 -19  -1   -1.77   11.94
 -12 -19   1   12.32   10.04
  19 -12  -1    1.53   16.57
  12  19   1   24.35   16.07
  12  19  -1   23.35   15.26
  19 -12  -1  -23.08   17.83
  19 -12   1   26.50   17.09
  12  19  -1   17.42   14.51
 -12 -19  -1  -30.76   16.93
 -12 -19   1   29.32   15.25
 -19  12   1   -1.50   16.34
 -12 -19   1  -14.91   12.73
 -19  12   1    0.69   17.06
  12  19   1   10.56   14.85
 -19  12  -3   42.01   21.76
  12  19   3   13.92   17.26
  19 -12  -3   63.15   15.31
 -19  12  -3   34.90   16.28
  19 -12   3   52.13   19.28
 -12 -19  -3   49.46   15.62
  12  19  -3   37.39   14.19
 -19  12  -3   57.61   15.14
  19 -12  -3   49.86   16.58
  12  19  -3   25.52   14.19
  19 -12   3   58.58   18.68
 -19  12   3   32.45   13.56
 -12 -19   3   44.83   11.37
 -12 -19   3   43.37   16.05
 -12 -19  -5   30.01   18.32
  19 -12  -5   -9.27   19.06
  12  19   5   -2.64   19.08
 -19  11   0   -8.16   17.46
  11  19   0   -3.21    6.62
 -11 -19   0   -4.67   12.29
  19 -11   0    7.70   14.72
  19 -11   0   21.39   18.21
  11  19   0   -7.02    6.64
 -11 -19   0    6.52   11.08
  19 -11   0  -17.68   16.92
  11  19   0  -14.39   15.35
 -11 -19   0   13.53   14.94
  11  19   0   -7.61   13.49
 -19  11   0   -2.85   15.06
 -19  11  -2   27.04   19.75
  11  19   2    0.74   15.69
 -19  11  -2   -8.65   15.56
  19 -11  -2   14.98   15.41
 -11 -19   2   18.29    9.32
  19 -11   2   17.90   16.39
 -11 -19  -2   15.24   14.49
 -19  11  -2   -4.19   15.59
 -11 -19  -2   22.88   13.99
 -11 -19   2   22.92    9.89
  19 -11  -2    0.65   15.86
  11  19   2   32.31   17.20
  11  19  -2    9.11   13.42
  11  19  -2   -1.92   14.41
  19 -11   2   -2.29   16.68
 -11 -19  -2   -5.61   16.34
 -11 -19   2  -14.91   14.92
 -19  11   2   20.58   14.50
 -11 -19   2   12.15   11.55
 -11 -19   4   30.20   16.59
  11  19   4    1.74   18.31
  19 -11   4   17.66   19.15
  19 -11  -4  -18.29   17.92
 -11 -19  -4   10.29   16.30
  19 -11  -4   -5.10   16.77
  11  19   4  -36.34   18.59
 -11 -19  -4    4.07   15.93
 -19  11  -4   19.93   13.61
  11  19  -4  -16.85   13.27
 -19  11   4   11.83   20.13
 -11 -19  -4  -27.50   18.56
  19 -11   4   30.76   18.21
 -19  10  -1  -16.16   18.49
 -19  10  -1    4.88   14.48
  10  19   1    6.68   14.47
 -10 -19   1   -7.76   12.16
  19 -10   1   20.46   15.59
  19 -10  -1  -14.18   16.60
 -10 -19  -1   12.48   12.37
 -10 -19  -1   -2.83   12.60
 -10 -19   1    1.76   10.42
  10  19   1   11.35   16.31
  10  19  -1   -1.34   14.31
  19 -10   1   -5.10   16.64
 -10 -19  -1   20.07   15.08
 -10 -19   1   -1.33   15.01
  10  19  -1    1.68   12.84
 -19  10   1    1.28   16.29
 -19  10  -3   40.71   21.28
 -10 -19   3   62.96   10.89
  10  19   3   45.56   17.51
 -19  10  -3   41.41   15.79
  19 -10   3    3.16   17.23
 -10 -19   3   25.82   10.47
 -10 -19  -3   21.26   15.48
  19 -10  -3   35.49   17.54
  10  19  -3    2.48   13.24
  19 -10  -3   66.25   15.31
 -19  10  -3   17.73   14.45
  10  19  -3   29.42   13.86
 -19  10   3   17.87   18.61
  19 -10   3   27.22   17.73
 -19  10   3   32.57   12.71
 -10 -19   3   28.58   15.93
  19 -10  -3   39.81   13.92
 -10 -19  -5   42.08   18.79
  19 -10  -5   46.99   18.56
  10  19   5    8.06   19.23
 -19   9   0    2.83   17.31
   9  19   0   -7.14   13.26
   9  19   0   -6.20    6.50
  19  -9   0   -5.25   14.24
  -9 -19   0   10.59   12.49
  19  -9   0   10.82   17.01
   9  19   0   11.43    6.56
  -9 -19   0   -1.25   11.47
   9  19   0  -11.86   14.40
  -9 -19   0  -16.61   15.04
 -19   9   0  -10.89   14.83
 -19   9  -2   15.12   20.41
 -19   9  -2    5.58   14.44
  19  -9  -2    9.94   14.11
   9  19   2   12.05   14.53
  -9 -19   2   17.26   10.69
  19  -9   2   29.94   15.92
  -9 -19  -2   12.41   13.96
 -19   9  -2  -11.04   14.68
  -9 -19  -2   14.10   13.88
  19  -9  -2   -5.29   16.79
  19  -9  -2   -4.06   14.19
   9  19   2   20.69   16.29
   9  19  -2   32.42   14.75
   9  19  -2   18.18   12.38
  -9 -19   2   18.10   11.02
  19  -9   2   25.01   17.65
 -19   9   2    0.74   16.78
  -9 -19   2    3.91   15.59
 -19   9   2   11.46   13.60
  -9 -19   4    3.41   17.11
   9  19   4   28.42   17.78
  19  -9   4   -3.37   17.85
  -9 -19   4    5.00   11.48
  19  -9  -4   37.55   17.62
  -9 -19  -4   29.82   17.31
  19  -9  -4   27.97   16.49
   9  19   4   33.23   17.82
 -19   9   4   23.45   19.00
 -19   9  -4   19.39   13.79
   9  19  -4   19.37   14.08
  -9 -19  -4   -0.87   17.35
  -9 -19  -4   -3.16   15.58
  19  -9   4   25.22   17.54
  19  -9  -6   -4.33   19.93
 -19   8   1   14.46   15.89
 -19   8  -1  -14.01   14.32
 -19   8  -1   -3.14   17.88
   8  19   1   11.44   13.55
  -8 -19   1  -15.73   11.65
   8  19   1    5.29    9.55
 -19   8  -1   -2.84   14.55
  -8 -19  -1   -6.64   12.76
  -8 -19  -1    6.93   12.95
  -8 -19   1   20.81   11.36
  19  -8   1  -18.85   14.25
  19  -8  -1   29.56   15.85
   8  19   1   -8.08   14.92
   8  19  -1  -15.74   14.18
  -8 -19  -1   12.99   15.00
  -8 -19   1  -22.51   15.03
   8  19  -1   10.98   12.47
 -19   8  -3   16.64   20.74
  -8 -19   3   17.31   11.46
 -19   8  -3   -2.89   15.03
  19  -8   3  -29.75   16.93
   8  19   3   14.37   16.03
  -8 -19  -3    3.30   15.08
  -8 -19   3    6.46    9.95
  19  -8  -3    6.17   16.57
  19  -8  -3  -10.45   14.42
   8  19  -3   -6.53   11.81
 -19   8  -3   11.05   14.05
   8  19   3   22.52   17.50
   8  19  -3    8.15   14.05
 -19   8   3   13.89   16.42
  -8 -19  -3    4.84   16.37
  19  -8   3   29.52   17.47
 -19   8   3    5.62   11.54
  -8 -19   3   -7.99   15.93
 -19   8  -5    9.19   12.80
  -8 -19   5   -4.34   17.83
 -19   8  -5   20.97   20.00
  19  -8   5   16.56   19.11
  -8 -19  -5   39.84   18.40
  19  -8  -5   -2.25   17.02
   8  19   5   -8.14   19.24
 -19   8   5   -9.30   20.29
   8  19  -5   -8.46   14.69
  -8 -19  -5  -14.51   18.15
  19  -8  -5   39.30   18.52
  19  -8   5   -8.70   18.51
 -19   7   0    0.69   16.79
   7  19   0   -0.19    6.41
  -7 -19   0   -7.52   11.62
  -7 -19   0   12.11   12.08
  19  -7   0    6.85   15.60
   7  19   0   -5.42   14.34
  -7 -19   0  -18.95   14.38
  19  -7   0  -14.74   13.64
   7  19   0    2.26   12.88
 -19   7  -2   -3.49   19.76
 -19   7  -2    4.72   14.39
  -7 -19   2   16.37   11.89
  19  -7   2   11.74   15.34
   7  19   2   10.80   13.39
   7  19   2   10.90   11.45
  -7 -19  -2   20.38   14.13
 -19   7  -2   -4.08   14.91
  19  -7  -2    7.94   16.20
  -7 -19   2    0.43   10.42
  19  -7  -2    7.69   12.96
   7  19  -2  -13.45   14.69
  -7 -19  -2   32.52   13.77
 -19   7   2    9.78   15.28
  19  -7   2   37.66   15.96
   7  19  -2    0.45   11.04
  -7 -19   2   -4.60   15.22
 -19   7   2    4.78   13.20
  -7 -19   4    2.82   17.21
  -7 -19   4    4.51    8.30
 -19   7  -4  -26.15   18.94
  -7 -19  -4   17.76   15.77
  -7 -19   4   29.65   12.84
  19  -7   4   19.31   18.17
   7  19   4    4.91   15.71
   7  19   4   21.83   16.33
  19  -7  -4    8.77   17.46
  -7 -19  -4   -3.02   16.34
  19  -7  -4   10.18   15.02
   7  19   4   26.73   17.60
 -19   7   4  -10.75   18.82
   7  19  -4   10.03   14.45
  -7 -19  -4    1.68   16.62
  19  -7   4  -10.35   17.34
  19  -7  -6  -18.39   18.30
 -19   6   1  -15.67   15.38
 -19   6  -1    2.31   17.83
   6  19  -1   -5.91   11.83
  19  -6   1   -4.48   13.58
   6  19   1   -7.83   12.96
   6  19   1   -4.30    9.88
 -19   6  -1   30.20   14.47
  -6 -19  -1    6.71   12.76
  19  -6  -1   -5.42   14.98
   6  19   1   13.45   14.06
  -6 -19   1   -5.65   11.05
   6  19  -1  -15.00   15.34
  -6 -19  -1   13.42   12.71
  -6 -19  -1    7.77   15.20
 -19   6   1    3.23   13.75
  -6 -19   1   10.65   14.44
  -6 -19   3   19.43    9.42
 -19   6  -3   12.56   20.93
  -6 -19   3   14.15   12.43
  19  -6   3   14.02   15.98
 -19   6  -3   25.40   14.67
   6  19   3   -1.15   13.87
   6  19   3   22.58   15.08
  -6 -19  -3   30.26   15.87
  19  -6  -3   39.99   16.56
  19  -6  -3   14.82   13.80
   6  19   3  -11.23   16.06
 -19   6  -3   29.28   14.39
   6  19  -3   17.38   11.06
 -19   6   3   21.95   16.44
   6  19  -3    7.67   14.21
  -6 -19  -3   47.88   16.20
  19  -6   3   11.05   15.76
 -19   6   3   12.51   10.60
  -6 -19   3   21.92   16.74
  19  -6   5   28.40   17.46
 -19   6  -5    6.49   13.17
  -6 -19   5   34.22   18.27
 -19   6  -5   23.21   22.66
 -19   6  -5   15.94   19.58
  -6 -19   5   28.39   14.30
  19  -6   5    6.25   18.91
   6  19   5   27.32   17.98
  19  -6  -5   41.65   17.88
   6  19   5   -0.87   17.43
  -6 -19  -5   18.78   18.19
  19  -6  -5   49.85   17.33
   6  19   5  -38.31   20.61
 -19   6   5   29.34   19.95
  -6 -19  -5    4.36   17.60
   6  19  -5    8.18   14.97
  -6 -19  -5    4.13   17.62
 -19   5   0   11.15   13.99
 -19   5   0    4.03   16.79
  19  -5   0    7.60   12.33
   5  19   0    4.81   12.34
 -19   5   0    4.33   14.43
   5  19   0    2.30    7.17
  -5 -19   0  -14.06   13.18
  19  -5   0  -27.16   14.45
   5  19   0   -7.30   14.93
  -5 -19   0   34.09   14.61
  -5 -19   0   10.38   11.75
 -19   5   2   -8.94   12.91
   5  19  -2   -5.40   10.63
  -5 -19   2    6.41   10.33
  -5 -19  -2   -0.63   13.65
 -19   5  -2    8.57   17.53
  -5 -19   2   16.70   12.07
  19  -5   2  -15.13   14.31
   5  19   2    2.29   11.62
  -5 -19  -2  -14.94   14.25
   5  19   2  -10.38   14.52
  19  -5  -2    8.28   15.44
  19  -5  -2   -0.45   12.25
 -19   5  -2  -21.53   14.16
   5  19  -2   10.33   14.35
  -5 -19  -2   -1.47   15.09
 -19   5   2  -15.12   14.85
  -5 -19   2   16.07   15.49
  -5 -19   4   51.79   18.64
 -19   5  -4    8.39   17.22
  -5 -19   4    4.85   13.80
  19  -5   4   13.93   16.89
   5  19   4    6.31   15.48
  19  -5  -4   22.94   16.64
  -5 -19  -4    6.91   16.70
  19  -5  -4   24.00   14.74
   5  19   4    6.29   15.82
   5  19   4   11.73   17.35
 -19   5   4  -10.94   17.86
  -5 -19  -4    7.58   15.61
  -5 -19  -4   26.94   17.12
   5  19  -4   20.01   14.43
 -19   5  -4   27.69   14.28
  19  -5   4  -18.07   17.56
  -5 -19   6   15.44   16.25
 -19   4   1    0.56   14.56
 -19   4  -1    9.82   13.40
 -19   4  -1   -2.27   17.17
  19  -4  -1   -9.43   11.73
  19  -4   1  -17.48   13.29
  -4 -19  -1   23.35   12.11
  -4 -19   1   -1.36   11.19
   4  19  -1   -1.41   11.35
   4  19   1    3.78    9.68
 -19   4  -1    6.24   14.82
  -4 -19  -1   14.62   13.58
   4  19   1  -10.38   13.18
  19  -4  -1    5.83   14.41
   4  19   1    2.74   14.05
   4  19  -1   -7.83   14.25
  19  -4   1  -15.14   14.67
 -19   4   1  -14.13   14.12
  -4 -19   1    5.38   14.61
  -4 -19   3   14.20   17.35
 -19   4  -3   44.74   20.22
 -19   4  -3   21.70   15.84
  -4 -19   3    4.17   13.32
  19  -4   3   25.06   15.10
  -4 -19   3   11.15    8.88
   4  19   3   19.77   13.81
  -4 -19  -3    6.85   15.51
  19  -4  -3   29.57   16.17
  19  -4  -3   15.34   12.91
   4  19   3   -2.82   14.30
   4  19   3   17.80   16.06
 -19   4  -3   15.78   14.21
 -19   4   3   22.83   15.65
   4  19  -3   28.68   14.22
  -4 -19  -3    6.12   15.54
 -19   4   3    8.63    9.47
  19  -4   5    7.68   18.02
  -4 -19   5   20.10   18.87
 -19   4  -5  -20.69   13.86
 -19   4  -5  -16.11   23.14
 -19   4  -5    4.32   18.99
  -4 -19   5   11.23   14.81
  19  -4   5    6.94   18.57
   4  19   5   44.20   18.34
  -4 -19  -5   15.52   18.82
  19  -4  -5   14.74   14.93
   4  19   5  -13.60   17.28
   4  19   5   35.87   20.47
  -4 -19  -5    8.95   16.83
 -19   4   5   23.69   19.20
  19  -4  -5   -1.58   16.82
  -4 -19  -5    0.85   17.44
   4  19  -5  -13.04   14.34
 -19   3   0    4.15   13.11
 -19   3   0    3.91   15.95
 -19   3   0    9.99   14.45
   3  19   0    1.02   11.88
  -3 -19   0   -7.28   13.62
  -3 -19   0   13.60   11.89
   3  19   0   -1.44    7.85
  19  -3   0   13.36   15.13
   3  19   0   -2.65   12.70
  -3 -19   0   -2.01   14.60
  19  -3   0   -0.85   11.41
 -19   3   2   20.58   12.31
 -19   3  -2   -2.54   18.06
  -3 -19   2   -1.91   10.08
   3  19  -2    3.95   10.30
 -19   3  -2   -8.24   13.81
  19  -3   2  -19.48   13.91
   3  19   2   10.72   11.53
  -3 -19  -2    0.61   14.78
  19  -3  -2  -20.79   15.16
  19  -3  -2  -17.69   11.23
 -19   3  -2  -14.10   14.23
  -3 -19   2  -21.30   13.12
   3  19   2  -11.90   13.68
   3  19   2    3.59   15.59
  -3 -19  -2  -10.60   12.46
   3  19  -2  -21.53   14.79
  -3 -19  -2   30.95   15.38
 -19   3   2   -4.36   14.23
  19  -3   2    1.34   14.00
  -3 -19   2  -40.65   16.37
  -3 -19   4   -8.57   18.94
 -19   3  -4   -1.47   17.02
  -3 -19   4   30.30   14.51
  19  -3   4   -5.18   16.62
   3  19   4    0.71   15.50
  19  -3  -4   29.71   16.49
  -3 -19  -4  -21.01   17.30
  19  -3  -4   23.10   13.53
  -3 -19  -4   16.41   14.64
   3  19   4    9.69   16.99
   3  19   4    7.68   15.63
 -19   3   4    0.74   17.46
  -3 -19  -4    5.56   16.10
   3  19  -4   29.17   14.65
 -19   3  -4    8.62   13.51
  -3 -19   6  -18.10   16.58
 -19   3   6  -15.58   20.42
  -3 -19  -6    7.04   17.43
  -3 -19   6   23.04   19.65
  -2 -19  -1   22.35   11.71
 -19   2   1   17.60   14.82
 -19   2  -1   11.25   13.43
  19  -2  -1   -0.71   10.19
 -19   2  -1   12.59   16.72
  19  -2   1   29.53   12.33
  -2 -19   1   16.72   11.21
   2  19   1    8.04   10.60
   2  19  -1    8.95   10.99
  -2 -19  -1   17.69   13.64
 -19   2  -1    2.05   14.02
  19  -2  -1  -13.03   14.78
   2  19   1   17.09   12.09
   2  19  -1   13.71   14.01
  19  -2   1   19.15   14.07
   2  19  -1    7.18    4.79
 -19   2   1   26.18   13.56
  -2 -19   1   19.13   14.99
   2  19  -3    6.31    8.89
  -2 -19   3   20.74   17.38
 -19   2  -3   -2.44   14.78
 -19   2  -3    3.78   19.00
  -2 -19   3  -13.65   14.34
  19  -2   3   28.59   14.55
   2  19   3    8.31   14.35
  19  -2  -3    1.33   14.63
  -2 -19  -3   19.65   16.09
  19  -2  -3   21.42   11.50
   2  19   3   -6.03   15.09
 -19   2   3   -3.92   14.97
   2  19   3   -2.74   13.93
   2  19  -3    6.65   14.84
  -2 -19  -3    2.24   14.91
 -19   2   3  -14.12    9.12
  19  -2   3    0.70   14.59
  19  -2   5    8.49   17.78
  -2 -19   5  -11.90   19.34
 -19   2  -5    2.30   22.22
 -19   2  -5  -17.00   19.16
 -19   2  -5  -15.81   14.17
  -2 -19   5   49.99   15.80
  19  -2  -5   20.20   16.48
  19  -2   5    0.84   18.05
   2  19   5    3.36   18.08
  19  -2  -5   -3.62   12.77
  -2 -19  -5   -3.50   18.32
   2  19   5   21.59   16.45
 -19   2   5    9.63   19.05
  -2 -19  -5   -0.82   17.20
   2  19  -5    3.40   15.34
  -2 -19  -5    4.84   15.69
 -19   1   0   -5.12   13.10
  19  -1   0  -11.55   10.61
 -19   1   0    1.92   15.44
 -19   1   0  -17.54   14.77
   1  19   0    8.40    9.14
  19  -1   0   -3.07   13.92
   1  19   0    1.31   13.56
   1  19   0  -12.14   11.79
  -1 -19   0    4.47   11.46
  -1 -19   0    4.07   14.84
 -19   1   2    8.85   12.74
 -19   1  -2    4.89   12.48
  -1 -19   2   11.83   13.24
 -19   1  -2  -15.01   17.94
 -19   1  -2   11.11   12.97
  19  -1   2   13.71   13.00
 -19   1   2    3.09   15.77
   1  19  -2    1.52    9.85
   1  19   2    8.28   12.60
  -1 -19  -2   32.47   15.12
  19  -1  -2   -1.67   10.41
  19  -1  -2   24.03   15.38
   1  19   2   22.23   14.51
 -19   1  -2   29.13   14.16
   1  19  -2    4.64   14.19
  -1 -19  -2   22.16   12.66
  -1 -19  -2   33.20   14.34
 -19   1   2   21.75   13.92
   1  19   2   22.41   12.92
  19  -1   2    1.30   14.31
  -1 -19   2    5.70   16.16
 -19   1  -4  -22.19   13.87
  -1 -19   4    8.20   19.52
  -1 -19   4    0.65   14.87
  19  -1   4    2.13   16.37
  19  -1  -4   28.71   15.76
   1  19   4    9.38   15.89
  19  -1  -4    0.42   11.40
  -1 -19  -4  -18.19   17.83
  -1 -19  -4   12.59   15.91
  -1 -19   4   -2.36    6.06
   1  19   4  -17.96   16.52
 -19   1  -4  -17.29   17.31
 -19   1   4   39.05   16.84
  -1 -19  -4   -4.64   16.47
   1  19   4   15.74   14.72
   1  19  -4   -4.12   15.13
  -1 -19   6   56.10   20.57
  -1 -19   6   -6.23   17.73
 -19   1  -6   12.26   13.96
 -19   1   6   21.79   19.63
  -1 -19  -6   -5.12   17.60
   1  19  -6   14.78   16.17
   0  19   1    2.13   11.66
 -19   0  -1    2.87   12.95
  19   0  -1   -2.36    9.32
 -19   0  -1  -10.24   16.26
   0 -19  -1    0.56   12.15
  19   0   1    8.88   10.95
 -19   0   1   -0.72   15.95
   0  19   1   -4.67   10.52
   0 -19  -1   14.47   14.64
 -19   0  -1  -19.81   14.25
  19   0  -1    2.36   14.36
   0  19  -1   -6.83   10.39
   0  19  -1    8.56   13.83
  19   0   1   11.07   13.93
   0 -19  -1   10.96   14.90
   0  19  -1    0.83    6.91
 -19   0   1   -2.16   13.70
   0 -19   1    7.71   14.93
 -19   0   1  -19.42   13.58
 -19   0   3    1.45    8.17
   0 -19   3   -1.56   17.74
 -19   0  -3   19.31   14.66
   0 -19   3   27.03   14.83
   0  19  -3    0.29    8.76
 -19   0  -3  -36.44   19.95
  19   0   3   18.17   14.10
 -19   0   3   -1.62   17.32
   0  19   3   -0.61   14.69
  19   0  -3   13.71   10.18
  19   0  -3   -0.63   14.24
   0 -19  -3   17.23   16.81
   0 -19   3   11.35    6.11
 -19   0   3  -20.57    6.73
   0  19   3   16.75   15.76
 -19   0   3   -0.61   14.30
   0 -19  -3  -16.01   14.99
   0  19  -3   33.57   15.09
 -19   0  -3    0.64   13.92
  19   0   3   13.76   14.66
   0  19   3   10.76   14.43
   0 -19   5   11.61   19.76
 -19   0  -5   12.53   18.59
 -19   0  -5   29.64   23.13
   0 -19   5    8.01   16.47
 -19   0  -5  -11.79   14.25
  19   0  -5   -6.34   15.38
  19   0   5  -26.23   15.70
  19   0   5   -0.82   17.83
   0  19   5   32.36   18.86
   0 -19  -5   37.24   18.59
   0  19   5   12.99   17.63
 -19   0   5  -31.07   17.66
   0 -19  -5   -2.40   17.15
   0  19   5    3.27   16.57
   0  19  -5  -11.66   16.47
   0 -19  -7  -15.80   17.36
  -1  19   0   -7.50   11.07
 -19  -1   0   -0.55   12.64
 -19  -1   0   -2.53   15.03
  19   1   0   -7.38    9.33
  -1  19   0    3.57    9.97
  19   1   0  -11.15   13.74
   1 -19   2   18.55   17.47
 -19  -1  -2   26.52   17.98
  -1  19   2   -4.19   12.63
 -19  -1   2   10.12   12.05
  19   1  -2   14.89    8.15
 -19  -1  -2   11.90   11.76
   1 -19   2    6.40   14.34
  -1  19  -2   -4.94    6.64
 -19  -1  -2    4.84   12.74
  19   1   2    1.87   11.75
   1 -19   2   -0.88    7.66
 -19  -1   2   23.26   15.75
  -1  19   2    8.23   13.43
  19   1  -2    6.08    8.91
   1 -19  -2   15.87   14.55
  19   1  -2   27.88   13.82
  -1  19  -2    9.24    9.57
  -1  19   2   -2.74   14.29
  -1  19  -2   12.88   14.26
   1 -19  -2    4.21   15.10
 -19  -1   2   12.25   13.57
  19   1   2  -14.56   14.42
  -1  19   4    1.49   15.25
  19   1   4   14.33   16.55
   1 -19   4   24.89   18.92
 -19  -1  -4  -12.45   14.54
 -19  -1  -4    2.82   16.52
   1 -19   4   -0.70   15.52
  19   1   4   21.83   15.43
  19   1   4   15.91   16.11
 -19  -1   4    2.50   17.78
  19   1  -4   11.04    9.67
  19   1  -4   -5.73   14.65
  -1  19   4  -14.04   16.80
   1 -19  -4   25.85   18.49
  -1  19   4   12.96   15.85
   1 -19   4  -17.70    9.17
 -19  -1   4   -7.18   15.37
   1 -19  -4   14.99   15.88
  -1  19  -4   -5.86   16.17
   1 -19   6    6.74   21.24
   1 -19   6    4.97   18.04
 -19  -1   6  -10.21   15.92
  19   1   6  -26.47   16.73
 -19  -1  -6   -6.07   14.20
 -19  -1   6  -18.13   19.09
   1 -19  -6   18.87   16.94
  -1  19  -6   16.80   17.19
 -19  -2   1   39.54   14.06
  -2  19  -1   64.62   11.26
 -19  -2  -1   55.09   13.06
 -19  -2   1   55.50   14.33
  19   2  -1   52.41    8.34
  -2  19   1   59.99   12.91
  19   2   1   52.24   10.58
   2 -19   1   57.86    9.55
 -19  -2   1   56.85   15.39
   2 -19  -1   56.50   15.65
  -2  19   1   50.12   12.36
  19   2  -1   53.76   14.16
 -19  -2  -1   44.11   15.28
  -2  19   1   52.51   14.45
  -2  19  -1   67.11   14.95
  19   2   1   70.13   14.99
  -2  19  -1   55.65    9.27
   2 -19  -1   58.69   15.44
   2 -19   1   42.72   16.37
  19   2   3   18.98   14.98
 -19  -2  -3   -3.95   14.07
   2 -19   3   11.50   18.57
 -19  -2   3   -4.28    8.07
 -19  -2  -3   -9.11   14.44
  -2  19   3    8.77   13.37
   2 -19   3   13.86   15.50
  19   2   3   -5.56   13.03
  19   2   3  -10.75   15.05
  19   2  -3   -0.69    7.86
 -19  -2   3   -5.45   16.22
  19   2  -3   40.57   14.39
  -2  19   3    7.59   14.78
   2 -19  -3   16.93   16.73
  -2  19  -3    7.11    8.79
   2 -19   3    1.88    9.31
 -19  -2   3   14.00    6.79
  -2  19   3  -10.62   15.70
 -19  -2   3   -4.00   14.53
   2 -19  -3  -15.61   15.19
  -2  19  -3   -0.72   15.95
  -2  19   5   12.20   15.90
  19   2   5   19.10   17.45
   2 -19   5   10.36   21.11
 -19  -2  -5   -7.42   18.67
 -19  -2  -5   28.40   22.95
   2 -19   5   20.25   17.63
  19   2  -5   -7.26   15.22
 -19  -2  -5  -33.23   15.11
  19   2   5   15.22   17.49
 -19  -2   5   -3.34   16.33
  19   2   5  -20.10   15.91
  -2  19   5  -26.95   18.48
   2 -19  -5    1.80   18.91
  -2  19   5  -15.73   16.99
 -19  -2   5   -0.71   17.18
   2 -19  -5  -14.59   16.83
  -2  19  -5    8.67   17.02
 -19  -2   7   31.97   20.78
 -19  -3   0   -4.69   12.33
  19   3   0    1.94    7.77
   3 -19   0   -0.74   10.06
  -3  19   0   -7.06   10.85
  -3  19   0   10.82   10.46
  19   3   0   -5.06   14.60
   3 -19   2   13.23   17.38
  -3  19  -2   -9.00    9.44
  -3  19  -2   -0.27    7.79
 -19  -3  -2   16.88   12.00
 -19  -3   2    4.69   12.38
  19   3  -2    3.42    5.18
  19   3   2    4.79   11.50
  19   3   2    9.24   14.85
  -3  19   2    0.61   12.78
  19   3  -2   -0.15    5.13
   3 -19   2    8.83    9.32
 -19  -3   2   -1.45   15.68
   3 -19  -2   17.95   15.42
  -3  19   2    0.54   13.51
  19   3  -2   13.06   13.61
 -19  -3   2   40.79    8.25
   3 -19   2  -23.80   14.52
  -3  19   2   -6.15   14.47
  -3  19  -2    2.11   14.89
   3 -19  -2   22.45   15.64
 -19  -3   2    9.45   12.83
 -19  -3  -2    9.25   14.59
  19   3   2   13.01   14.72
  19   3   4    7.45   16.09
   3 -19   4  -21.73   19.99
 -19  -3  -4   17.65   14.63
 -19  -3  -4   24.20   16.18
   3 -19   4    6.71   16.99
  19   3  -4    8.93    8.20
  19   3   4   -8.67   15.08
  19   3  -4   -6.54   14.19
  19   3   4   30.60   16.35
 -19  -3   4   -3.19   16.50
  -3  19   4    2.28   17.16
   3 -19  -4   18.17   17.81
  -3  19   4  -16.26   16.15
   3 -19   4    9.23   11.11
 -19  -3   4    4.89   15.41
   3 -19  -4   24.64   15.90
  -3  19  -4    3.14   17.31
   3 -19   6    3.05   21.67
   3 -19   6  -18.48   18.59
 -19  -3   6  -26.59   14.70
  19   3   6   -5.00   17.69
 -19  -3  -6   -7.79   14.72
 -19  -3   6   -9.26   18.31
   3 -19  -6   -7.04   16.25
  -3  19  -6   -7.48   17.86
   4 -19   1   15.09   16.45
 -19  -4   1    1.51   12.06
 -19  -4  -1   -9.22   12.58
  19   4  -1    1.50    4.16
   4 -19  -1   -8.17   11.58
  19   4   1   -8.90    9.45
   4 -19   1   15.00   10.56
  -4  19  -1    4.14   10.06
  19   4  -1    1.10    4.78
   4 -19  -1  -28.06   15.50
  -4  19   1   -1.09   12.09
 -19  -4   1   -6.11   10.31
 -19  -4   1   11.08   14.45
  -4  19   1    6.06   12.28
  19   4  -1    9.50   13.44
  -4  19   1    7.39   14.75
  -4  19  -1   -8.27   13.73
  19   4   1  -25.93   14.16
  -4  19  -1    7.06    9.44
   4 -19  -1    0.71   15.42
  19   4   3   19.40   14.51
   4 -19   3   -3.47   18.52
 -19  -4  -3   -5.45   14.55
 -19  -4   3   13.54    9.36
   4 -19   3   -9.16   16.15
 -19  -4  -3   12.22   13.73
  19   4  -3    1.46    4.43
  19   4   3   24.91   13.60
  19   4   3   15.84   15.36
  19   4  -3    8.22   13.66
  -4  19   3    9.67   14.04
   4 -19  -3  -38.74   17.74
 -19  -4   3  -11.18   15.68
  -4  19   3   17.92   15.57
   4 -19   3   11.54   10.76
  -4  19   3   -9.76   14.60
 -19  -4   3    0.92    7.05
 -19  -4   3   12.90   13.05
  -4  19  -3   17.47   16.87
   4 -19  -3   -9.97   15.43
  -4  19  -3   -1.22    9.03
  19   4   5  -24.82   17.36
   4 -19   5  -19.78   21.90
  -4  19   5    2.46   16.63
 -19  -4  -5   24.51   18.61
   4 -19   5  -24.85   18.64
  19   4  -5    1.23   14.16
  19   4   5  -15.90   17.36
 -19  -4   5   -5.51   15.37
  -4  19   5   -9.78   18.46
 -19  -4  -5  -16.22   15.50
  19   4   5  -22.94   16.76
  -4  19   5   -3.06   16.23
 -19  -4   5  -14.54   16.22
   4 -19  -5  -34.62   16.48
  -4  19  -5   20.39   19.05
 -19  -5   0    6.04   12.17
  19   5   0   -7.44    6.32
   5 -19   0   22.40   11.35
 -19  -5   0    7.66   14.11
  -5  19   0    5.12   11.65
  19   5   0   -8.54   13.76
  -5  19   0   -3.40   11.15
  -5  19   0   -1.37   13.84
   5 -19   0   -7.39   16.21
 -19  -5  -2   58.34   15.55
   5 -19   2   64.95   18.91
  -5  19  -2   54.09   10.29
 -19  -5  -2   32.90   12.12
  19   5   2   61.46   11.87
  19   5   2   69.10   15.54
  -5  19  -2   53.47   10.07
   5 -19  -2   62.59   16.88
  19   5  -2   29.89   13.97
   5 -19   2   53.17   11.77
  -5  19   2   58.80   15.47
 -19  -5   2   63.17   16.06
 -19  -5   2   53.59    9.31
  -5  19   2   44.72   13.45
  -5  19   2   49.03   15.16
  -5  19  -2   76.34   16.34
   5 -19  -2   67.64   16.12
 -19  -5   2   68.13   13.59
   5 -19   2   14.09   15.91
  19   5   2   39.93   14.54
  19   5   4   -0.74   15.61
   5 -19   4   -4.77   20.28
 -19  -5  -4  -23.92   15.98
   5 -19   4   -4.75   17.50
 -19  -5  -4  -11.31   14.76
  19   5  -4   12.14   13.78
  19   5   4   -5.98   15.08
  19   5   4  -16.93   17.44
  -5  19   4   13.45   17.38
 -19  -5   4  -16.48   15.46
  -5  19   4   -3.63   16.49
   5 -19   4   -5.81   12.09
 -19  -5   4  -10.77   14.13
   5 -19  -4   -1.44   16.09
  -5  19  -4   14.28   17.95
   5 -19   6   -7.53   22.30
  19   5   6   34.49   19.58
  19   5   6  -45.18   18.97
  -5  19   6   -3.14   17.27
 -19  -5   6   -1.44   17.81
 -19  -5  -6    2.96   15.63
   5 -19  -6   -0.75   15.83
  -5  19  -6   -9.87   19.21
  -6  19   1    6.89   12.69
 -19  -6   1    4.29   12.01
 -19  -6  -1    0.84    8.96
 -19  -6  -1   22.34   12.72
   6 -19  -1   10.48   12.48
  19   6   1   10.91    8.82
   6 -19   1   12.42   11.76
 -19  -6   1   12.68   10.76
  19   6  -1    3.45   12.94
  -6  19   1    4.62   13.39
 -19  -6   1   27.74   14.58
  -6  19   1   12.29   14.33
  19   6   1   11.13   13.35
  -6  19  -1    7.94   10.82
   6 -19  -1   -0.73   15.80
  -6  19  -1   11.24   10.19
  19   6   3   18.50   14.91
   6 -19   3    3.63   20.02
 -19  -6  -3   -1.41   15.06
   6 -19   3   23.25   16.66
 -19  -6   3   10.28    9.96
 -19  -6  -3   16.91   13.86
  -6  19  -3    2.60    9.98
  -6  19  -3    0.95    8.99
  19   6   3   -9.72   13.41
  19   6  -3    2.54   13.00
  19   6   3   -2.37   15.76
  -6  19   3    6.19   16.01
 -19  -6   3   17.83   15.23
   6 -19   3   17.36   11.92
  -6  19   3    3.48   15.53
 -19  -6   3   10.19    7.66
  -6  19   3   -7.85   14.53
 -19  -6   3   12.04   12.90
  -6  19  -3  -18.61   18.15
   6 -19  -3   12.05   15.76
  19   6   5   10.75   17.70
   6 -19   5   -4.17   21.78
 -19  -6  -5   45.10   18.10
   6 -19   5   10.51   19.14
  19   6   5   13.52   17.17
  -6  19   5   36.99   17.93
   6 -19  -5  -13.10   20.04
  -6  19   5   74.54   20.86
  19   6   5   37.99   18.68
 -19  -6   5  -15.53   13.73
 -19  -6  -5   49.26   15.84
  -6  19   5   17.17   16.49
 -19  -6   5   22.63   15.53
   6 -19   5   27.58   13.52
   6 -19  -5   34.91   15.99
  -6  19  -5    9.00   19.89
   7 -19   0   17.77   16.22
 -19  -7   0   13.55   12.13
  19   7   0   -5.03   14.65
  -7  19   0   -4.18   11.65
   7 -19   0   -0.97   12.63
  19   7   0   -3.73    4.23
 -19  -7   0   -3.68   11.92
  19   7   0    4.57   13.23
  -7  19   0    5.75   12.44
  -7  19   0  -19.02   15.59
 -19  -7   0   -0.66   14.12
  19   7   2   -0.60   14.11
 -19  -7   2   -0.92   12.18
  -7  19  -2   -4.20    9.69
   7 -19   2   -5.23   18.96
  -7  19  -2    7.55   10.27
 -19  -7  -2   -2.80   14.29
  -7  19   2  -21.93   14.34
   7 -19   2   15.73   16.14
 -19  -7  -2    1.62   11.40
   7 -19  -2    0.58   14.33
  19   7   2   12.41   11.09
  19   7   2    8.50   16.25
  19   7  -2    3.28   12.65
   7 -19   2   -3.14   12.44
 -19  -7  -2    4.31   14.69
  -7  19   2   -4.28   15.52
 -19  -7   2  -16.71   15.03
 -19  -7   2   14.37    9.41
  -7  19   2   -8.91   15.64
  -7  19  -2   14.14   16.87
   7 -19  -2   -1.45   16.26
  19   7   4    2.94   15.88
   7 -19   4   45.22   21.57
   7 -19   4   -8.37   18.18
 -19  -7  -4    5.38   15.80
  19   7  -4  -14.17   12.66
 -19  -7  -4    6.59   14.83
  19   7   4   26.71   15.26
  -7  19   4   -5.73   18.41
  19   7   4   25.32   17.17
 -19  -7   4   -1.44   15.07
  -7  19   4   11.39   15.63
   7 -19   4    0.97   13.54
 -19  -7   4    7.84   13.76
   7 -19  -4   -1.43   15.95
  -7  19  -4   20.32   19.01
  19   7   6   17.73   19.27
  -7  19   6   15.18   16.83
 -19  -7  -6   19.36   16.45
   8 -19  -1   -2.27   16.43
   8 -19   1  -32.77   19.11
 -19  -8   1   20.56   11.70
 -19  -8  -1    6.18    8.84
   8 -19  -1  -15.50   13.37
  19   8   1   -1.52   15.47
  19   8   1   -1.32    8.69
   8 -19   1   11.86   12.61
  -8  19   1   -3.09   13.42
 -19  -8  -1   11.94   13.78
  -8  19  -1   13.21   10.76
 -19  -8   1    9.51   11.57
  19   8  -1    0.46   12.42
  -8  19   1   30.30   14.50
  -8  19   1   11.20   14.80
 -19  -8   1   15.09   14.88
  19   8   1    1.62   13.52
  -8  19  -1   10.59   12.02
  -8  19  -3   39.49    9.78
  19   8   3   44.78   15.58
  -8  19   3   56.94   16.60
   8 -19   3   60.46   21.01
   8 -19   3   49.35   18.40
 -19  -8  -3   38.21   14.39
  -8  19  -3   33.75   11.57
 -19  -8  -3   48.88   16.20
  19   8   3   14.66   13.88
  19   8  -3   37.88   12.40
  19   8   3   64.15   17.83
  -8  19   3   37.66   17.49
 -19  -8  -3   55.36   17.32
   8 -19   3   45.06   13.74
 -19  -8   3   18.94   14.90
  -8  19   3   37.80   16.07
 -19  -8   3   38.95    9.30
  -8  19  -3   53.09   19.20
 -19  -8   3   34.45   12.32
   8 -19  -3    2.15   16.45
  19   8   5  -30.66   17.24
   8 -19   5   16.49   21.99
 -19  -8  -5   26.32   18.10
   8 -19   5   50.68   21.13
  19   8   5   -7.24   17.06
  -8  19   5   -4.72   21.31
  19   8   5   40.08   18.56
 -19  -8  -5   27.69   16.28
 -19  -8   5   -0.70   12.31
  -8  19   5   12.49   16.19
 -19  -8   5   34.17   14.37
   8 -19   5   14.00   14.60
   8 -19  -5    7.14   15.96
  -8  19  -5   20.09   20.83
 -19  -9   0    6.78   14.59
   9 -19   0   -4.08   17.04
  -9  19   0   -8.00   12.50
 -19  -9   0   13.01   11.80
  19   9   0    9.67   16.16
   9 -19   0  -22.94   14.29
 -19  -9   0   11.85   12.94
  19   9   0   -1.93   13.05
  -9  19   0    3.73   13.42
  -9  19   0   10.25   15.28
  19   9   2   34.20   14.33
 -19  -9   2   37.32   12.30
  -9  19  -2   28.51   12.45
   9 -19   2   44.15   17.89
 -19  -9  -2   16.61   15.33
 -19  -9  -2   36.32   12.00
   9 -19  -2   22.08   13.87
  19   9   2   44.59   11.74
  19   9  -2   37.82   12.20
  -9  19   2   41.09   16.05
   9 -19   2   46.48   14.47
 -19  -9  -2   38.45   17.02
  -9  19   2   53.28   15.76
 -19  -9   2   25.46   10.65
  -9  19   2   32.85   15.37
  -9  19  -2   39.56   10.62
  -9  19  -2   30.68   17.94
   9 -19  -2   48.17   17.15
  19   9   4   29.48   15.81
   9 -19   4    7.37   21.86
   9 -19   4   21.19   19.01
 -19  -9  -4   15.99   15.97
  19   9  -4   20.93   12.29
  19   9   4  -22.31   16.02
   9 -19  -4    9.74   18.94
 -19  -9  -4    7.62   15.37
  -9  19   4   -5.91   18.95
  19   9   4   -9.74   18.18
 -19  -9  -4   10.22   18.52
  -9  19   4  -16.23   15.42
 -19  -9   4    0.70   14.08
   9 -19   4  -12.25   14.62
 -19  -9   4  -10.96   12.45
  -9  19  -4   24.29   20.61
   9 -19  -4  -21.53   17.32
  10 -19  -1   29.77   17.81
  10 -19   1  -19.66   19.55
 -19 -10  -1  -12.04   14.84
  10 -19   1   21.39   16.67
 -19 -10  -1   21.71    8.85
 -19 -10   1   25.03   11.12
 -10  19   1   10.04   13.90
  10 -19  -1    7.97   14.41
  19  10   1    3.14   16.04
  19  10   1   18.25    8.49
  10 -19   1   15.55   14.45
 -10  19  -1    9.95   11.87
 -19 -10  -1    3.97   14.07
  19  10  -1    2.12   12.33
 -19 -10   1   21.21   12.59
 -10  19   1   33.67   15.00
 -10  19   1   26.71   15.44
 -10  19  -1   35.97   18.00
  19  10   1   16.89   13.28
 -10  19  -1  -14.68   13.53
 -19 -10   1   12.69   14.31
 -19 -10   3    9.51   11.11
  19  10   3   21.10   14.78
  10 -19   3    7.09   21.24
  10 -19   3  -11.78   18.46
 -10  19  -3  -12.90   12.35
 -19 -10  -3   -2.67   13.49
  10 -19  -3   -0.72   15.80
 -19 -10  -3  -24.88   16.12
  19  10  -3   20.47   11.70
  19  10   3   -7.50   13.77
  10 -19  -3   15.93   17.45
 -10  19   3    9.50   15.93
  19  10   3   -1.72   17.11
 -10  19   3   15.31   17.81
 -19 -10  -3  -19.57   17.31
  10 -19   3    6.23   14.34
 -10  19   3    8.43   15.24
 -19 -10   3   -7.91    8.79
 -19 -10   3   36.65   13.89
 -10  19  -3   -4.83    9.64
 -10  19  -3   -6.32   18.41
  10 -19  -3    3.75   17.33
  10 -19   5   23.05   23.48
 -19 -10  -5    1.59   17.72
  19  10   5   -2.44   17.87
  19  10   5  -10.45   19.55
 -10  19   5  -17.92   16.57
 -19 -10  -5   11.24   16.31
  10 -19   5  -11.91   15.94
  10 -19  -5    6.53   15.98
  11 -19   0  -26.31   19.17
 -19 -11   0   13.23   15.13
 -11  19   0    7.53   13.61
  19  11   0   16.19   15.88
  11 -19   0   -4.31   15.10
 -19 -11   0    9.57   13.65
  19  11   0    0.91   12.29
 -11  19   0  -13.60   14.56
 -11  19   0  -12.36   16.44
  11 -19  -2  -16.59   17.49
  19  11   2  -14.08   14.05
 -11  19  -2   22.48   13.09
 -19 -11   2   -5.33   10.50
  11 -19   2   27.38   19.43
 -11  19   2    7.58   16.12
 -19 -11  -2   12.28   11.33
 -11  19  -2  -12.31   11.38
  11 -19  -2  -21.16   15.54
  19  11   2   23.61   10.47
  19  11  -2   -1.19   11.35
  11 -19  -2   -2.45   18.04
  11 -19   2   11.72   14.75
 -19 -11  -2   20.86   16.83
 -11  19   2   16.98   16.50
 -19 -11   2    6.26   11.50
 -11  19   2   -4.30   15.85
 -19 -11   2   25.83   14.19
  19  11   4   50.50   16.92
  11 -19   4   -3.33   22.90
  11 -19   4   27.87   19.67
 -19 -11  -4   19.19   15.81
  19  11   4   20.32   15.75
  11 -19  -4  -10.90   19.83
 -11  19   4    0.88   18.98
 -19 -11  -4  -22.21   16.69
  19  11   4   18.40   18.83
 -19 -11  -4   -4.79   19.19
 -11  19   4  -18.40   16.13
  11 -19   4  -21.96   15.90
 -19 -11   4   21.43   13.69
 -11  19  -4    6.90   20.28
  11 -19  -4   -3.73   16.89
  12 -19  -1   -2.57   19.51
 -19 -12   1   -5.47   14.59
  12 -19   1   10.44   19.70
 -19 -12  -1   -1.22    8.37
 -19 -12  -1  -23.34   15.98
 -12  19  -1   14.00   13.05
  19  12  -1   12.82   15.96
 -12  19   1   28.14   15.78
  12 -19  -1   18.08   15.41
  19  12   1  -22.64   16.47
  19  12   1   23.83    8.87
  12 -19   1   -5.60   15.60
  19  12  -1   14.02   11.55
 -19 -12  -1   48.02   15.57
 -19 -12   1    6.83   13.78
 -12  19   1   16.04   16.30
 -12  19   1   -0.75   16.19
 -12  19  -1   28.32   18.16
  19  12   1   26.15   13.15
 -12  19  -1    7.07   13.68
  12 -19  -3  -28.21   18.16
 -12  19   3    8.38   17.94
 -19 -12   3    0.36   10.19
  19  12   3   -4.61   14.75
  12 -19   3   30.94   22.10
 -12  19  -3    3.38   13.13
  12 -19   3   -7.10   19.83
 -19 -12  -3   -0.53   13.32
  12 -19  -3    2.31   16.94
  19  12  -3   -6.54   11.06
  19  12   3  -10.45   12.95
 -19 -12  -3   17.22   16.75
  12 -19  -3   18.18   18.50
  19  12   3   -0.89   18.28
 -12  19   3    5.69   18.60
 -19 -12  -3    1.77   17.74
 -12  19  -3    8.86   10.71
  12 -19   3   -1.27   15.62
 -12  19   3   10.66   16.01
 -19 -12   3   -0.83    9.54
 -12  19  -3   31.91   20.81
 -19 -12   3   28.96   14.48
 -19 -12  -5    7.90   18.06
  19  12   5   30.40   18.35
 -12  19   5   25.46   15.88
  12 -19   5  -25.87   17.52
  13 -19   0  -29.82   20.45
 -13  19   0   -0.68   14.67
 -19 -13   0  -17.88   15.28
  19  13   0  -13.50   16.53
  13 -19   0   -5.41   15.63
 -19 -13   0    6.45   14.91
  19  13   0    3.84   11.59
 -13  19   0   11.70   14.66
 -13  19   0   -4.03   16.67
  19  13   2  -17.60   13.78
  13 -19  -2   22.83   19.07
 -13  19  -2    0.60   14.15
 -19 -13   2  -10.80   14.66
  13 -19   2    6.20   20.30
 -13  19   2  -29.80   16.73
 -19 -13   2    2.98    9.70
 -19 -13  -2   -3.99   11.52
  13 -19  -2  -21.48   16.33
  19  13  -2   -4.23   11.05
  19  13   2    7.96   10.51
  13 -19  -2   21.26   18.78
  13 -19   2    6.55   15.76
 -19 -13  -2  -15.26   16.84
 -13  19   2   -9.84   17.03
 -19 -13   2   -8.05   12.90
 -13  19   2   14.74   16.60
  13 -19  -4   37.54   18.04
 -19 -13   4   22.62   13.37
  19  13   4    3.01   16.74
 -19 -13  -4  -21.83   16.50
  13 -19  -4   28.31   17.66
  19  13   4   19.42   15.32
 -13  19   4    7.41   20.21
 -19 -13  -4  -26.45   16.40
 -13  19   4    1.42   16.14
  13 -19   4    4.89   17.24
  14 -19  -1    4.56   19.65
  14 -19   1   22.26   21.17
  14 -19   1    3.31   18.83
 -19 -14   1   20.30   15.28
 -19 -14  -1   -6.02    8.36
 -19 -14  -1   -3.75   15.60
  19  14  -1    7.82   15.67
  14 -19  -1   -5.13   16.64
 -14  19   1  -16.97   16.01
  19  14   1   -5.88   17.00
  14 -19   1  -13.73   16.49
  19  14  -1   -1.77   11.07
 -19 -14  -1  -19.86   15.35
 -19 -14   1  -32.58   14.36
 -14  19   1   18.05   16.66
 -14  19   1   18.69   17.18
 -14  19  -1  -21.09   19.41
  19  14   1   21.09   13.11
 -14  19  -1    5.22   14.81
  14 -19  -3  -19.20   18.16
 -19 -14   3    2.00   14.34
  19  14   3   25.99   15.59
 -14  19  -3  -17.06   14.96
 -19 -14  -3    5.35   14.03
  14 -19  -3  -18.02   17.42
  19  14   3   23.65   12.44
  14 -19  -3  -35.82   20.53
 -19 -14  -3  -13.01   15.91
  19  14   3    9.26   18.19
 -19 -14  -3  -17.41   17.83
 -14  19   3   -6.90   19.23
  14 -19   3    5.67   16.62
 -14  19   3   21.20   17.96
 -14  19   3   20.34   16.34
 -19 -14   3    0.96   11.76
 -14  19  -3  -16.82   20.14
 -19 -14  -5   16.61   17.74
  19  14   5   -7.36   17.29
  14 -19   5   20.74   18.67
  15 -19   0   19.77   21.48
 -19 -15   0   12.41   15.22
  19  15   0   -4.95   17.24
  15 -19   0  -20.74   16.98
 -19 -15   0   15.42   14.83
  19  15   0   18.85   11.34
 -15  19   0  -14.89   16.61
 -15  19   0   -7.68   18.47
  19  15   2   -7.06   14.09
  15 -19  -2    1.80   20.37
 -15  19  -2  -12.11   15.03
  15 -19   2    8.72   21.55
 -15  19   2    3.40   17.24
  15 -19   2    5.36   19.85
 -19 -15   2   22.68   15.05
 -19 -15  -2    2.03   11.79
  19  15  -2   13.78   16.66
  15 -19  -2  -13.53   17.90
 -19 -15  -2   23.87   16.48
  15 -19  -2  -10.61   19.08
  19  15   2   10.78   17.95
  15 -19   2   -2.18   17.41
 -19 -15  -2   15.94   16.89
 -15  19   2   -3.24   17.68
 -19 -15   2   26.22   14.25
 -15  19   2    6.84   16.20
 -15  19  -2   38.82   20.71
  15 -19  -4  -48.19   19.55
  19  15   4   -0.76   16.24
 -19 -15   4   14.13   13.27
 -19 -15  -4   -8.64   15.71
  19  15   4    1.32   15.23
 -15  19   4   -2.15   15.94
  15 -19   4   32.29   18.49
 -16  19  -1    8.62   15.65
  16 -19  -1   23.32   21.03
  16 -19   1   -1.07   20.94
  16 -19   1    5.22   19.46
 -19 -16   1   11.39   15.15
  19  16  -1   12.18   16.98
  16 -19  -1  -23.01   18.13
 -19 -16  -1   20.11   16.33
  16 -19   1    4.53   17.45
  19  16   1   25.29   17.91
 -19 -16  -1    1.58   16.79
 -19 -16   1   -7.51   15.88
 -16  19   1  -31.07   17.26
 -16  19   1   -0.82   17.76
 -16  19  -1   20.17   19.11
  19  16   1   -0.49   12.86
  16 -19  -3   24.60   19.57
  19  16   3    6.08   15.80
 -16  19  -3    0.70   15.21
 -19 -16   3    6.01   14.52
 -19 -16  -3   -0.55   13.89
  16 -19  -3    8.74   17.65
  16 -19  -3   21.23   20.26
  16 -19   3  -12.50   18.93
 -16  19   3   30.08   19.78
 -16  19   3   19.30   15.85
 -19 -16  -5   15.91   18.38
  16 -19   5   51.95   19.51
  17 -19   0  -29.22   22.98
 -19 -17   0    1.50   15.91
  17 -19   0   13.71   18.30
  19  17   0  -34.98   18.17
 -19 -17   0  -19.84   16.14
 -17  19   0  -16.03   18.72
 -17  19   0   11.59   16.91
  17 -19   2   -2.30   23.09
  19  17   2   16.60   14.51
 -17  19  -2    0.74   16.22
  17 -19  -2   -3.80   20.46
 -19 -17   2   -1.39   14.72
  19  17  -2   -3.97   16.55
  17 -19  -2   -3.44   18.40
  17 -19   2  -11.32   20.70
  17 -19  -2   -3.68   19.70
  17 -19   2  -23.89   19.00
  19  17   2   -1.88   18.40
 -19 -17  -2    9.91   15.71
 -19 -17  -2   26.57   18.43
 -17  19   2   25.01   18.35
 -19 -17   2   -3.29   15.14
 -17  19   2  -25.11   17.32
 -17  19  -2    1.98   20.98
  19  17   4   -1.55   17.41
  17 -19   4    5.07   19.21
 -18  19  -1  -11.77   17.14
  18 -19  -1   35.73   22.32
  18 -19   1   47.30   22.89
  18 -19   1  -10.94   19.47
 -19 -18   1  -19.73   15.07
  19  18  -1   -8.41   17.46
  18 -19  -1   -4.33   18.84
  18 -19   1   22.24   18.71
  19  18   1  -20.10   18.32
 -19 -18  -1  -12.00   16.25
 -19 -18  -1  -16.98   17.68
 -19 -18   1    8.99   16.55
 -18  19   1  -11.70   18.21
 -18  19   1   13.70   18.12
 -18  19  -1    3.87   20.18
  18 -19  -3    7.33   20.06
  19  18   3   16.48   16.21
 -18  19  -3   26.31   16.44
 -19 -18   3    5.38   14.42
  18 -19   3   31.61   19.41
 -18  19   3  -24.29   16.90
  19 -19   0    8.76   22.64
  19 -19   0  -27.93   20.18
  19 -19   0  -24.48   19.64
  19  19   0   -4.47   18.16
 -19 -19   0   34.13   16.48
 -19 -19   0  -19.74   17.36
 -19  19   0   10.36   19.68
 -19  19   0   -4.17   17.77
 -19  19  -2   -1.62   16.87
  19 -19  -2  -15.81   20.70
  19  19  -2    9.92   17.45
 -19 -19   2   -7.10   15.20
  19 -19   2   -4.35   20.20
 -19 -19   2    0.72   16.30
 -19  19   2  -25.17   18.88
  19  19   4   -1.58   17.60
 -20  19  -1    2.56   18.41
  20 -19  -1   18.07   22.92
  19  20  -1   -1.76   17.51
  20 -19   1  -19.70   20.06
 -19 -20   1  -30.85   16.22
 -19 -20  -1   15.42   18.69
 -19 -20   1   -6.51   17.47
 -20  19   1   -4.46   19.18
 -19 -20   3   15.66   15.03
  20 -18   0   -6.49   22.41
  20 -18   0    2.64   18.89
  18  20   0   -0.88   17.22
 -18 -20   0   -0.76   15.45
 -18 -20   0   21.07   17.67
  20 -18   0    0.89   19.50
 -20  18   0   17.65   20.02
 -20  18   0    9.38   17.90
 -20  18  -2   40.85   17.51
  20 -18  -2   10.52   19.93
  18  20  -2   -9.73   17.10
 -18 -20   2    7.53   14.61
  20 -18   2   -1.79   20.31
 -18 -20   2   11.89   16.92
 -20  18   2   38.02   17.79
 -20  17  -1   28.12   18.61
  20 -17  -1  -26.44   21.38
  20 -17   1   56.00   19.73
  20 -17   1   67.54   22.87
  20 -17  -1   38.38   19.46
  17  20  -1   60.84   17.73
  20 -17   1   24.16   19.14
 -17 -20   1   22.09   14.90
  17  20   1   41.61   17.81
 -17 -20  -1   42.02   18.96
 -17 -20   1   20.35   17.58
 -17 -20  -1   57.26   16.64
 -20  17   1   46.81   19.02
 -20  17   1   22.55   18.40
 -20  17  -1   25.11   20.82
  20 -17  -3   25.97   18.52
  17  20   3    1.31   15.47
 -20  17  -3   32.48   17.95
  17  20  -3  -13.88   16.69
 -20  17  -3   -5.96   15.48
 -17 -20   3    9.20   13.11
 -20  17   3   17.68   16.51
  20 -16   0   -5.74   18.75
  20 -16   0   18.12   21.09
  20 -16   0    5.94   18.22
  16  20   0    9.90   16.98
 -16 -20   0   24.41   16.94
 -16 -20   0   -9.89   14.15
 -20  16   0    9.63   19.06
 -20  16   0  -11.51   17.69
 -16 -20  -2   -2.40   16.13
 -20  16  -2    6.50   17.96
  16  20   2   24.04   13.70
  20 -16  -2   21.54   18.98
  20 -16   2  -18.24   20.02
  20 -16   2   28.58   23.33
  20 -16  -2   26.95   19.16
  16  20  -2   -7.44   16.06
  20 -16  -2  -11.97   19.53
  16  20  -2   25.86   15.22
  20 -16   2  -11.26   19.38
 -16 -20   2   34.85   13.95
 -16 -20  -2    3.69   18.38
 -20  16   2   12.49   19.24
 -16 -20   2   -5.02   16.08
 -20  16   2   10.26   16.68
 -20  16  -2    5.01   21.01
  16  20   4   11.07   16.36
 -16 -20  -4    2.16   16.41
 -20  15  -1   31.99   17.42
  20 -15  -1   34.90   19.25
  20 -15   1   16.48   18.71
  20 -15   1   42.75   21.72
 -15 -20  -1   27.11   11.66
  20 -15  -1   33.34   18.76
  15  20  -1   39.52   16.27
  15  20  -1   23.23   16.04
  20 -15   1   35.03   18.45
 -15 -20  -1   48.31   18.01
 -15 -20   1   41.47   14.46
 -15 -20   1   55.00   17.06
 -20  15   1   69.12   18.11
 -20  15   1   30.39   17.72
 -15 -20  -1   51.04   15.77
 -20  15  -1   52.39   21.16
  20 -15  -3    2.21   16.57
 -20  15  -3   13.08   17.47
  20 -15   3   12.29   19.90
  15  20   3   11.10   14.84
 -15 -20  -3    1.84   14.84
  15  20  -3    6.00   15.08
 -20  15  -3   -0.73   15.98
  20 -15  -3   14.74   18.06
  15  20  -3  -23.79   15.04
  20 -15   3  -44.68   19.96
 -15 -20   3    4.95   12.34
 -20  15   3    5.10   14.84
 -15 -20   3    0.68   16.19
  15  20   5    7.84   18.24
  20 -14   0   15.09   17.06
  20 -14   0   -8.42   20.54
 -14 -20   0    7.78   10.67
  20 -14   0   44.03   18.25
  14  20   0   27.62   16.59
  14  20   0    9.29   15.42
 -14 -20   0   27.44   16.55
 -14 -20   0   11.86   14.60
 -20  14   0   42.70   17.34
 -20  14   0   22.37   19.38
 -20  14  -2  -34.15   21.91
 -14 -20  -2  -30.52   15.95
 -20  14  -2   -2.37   17.08
  20 -14  -2  -24.89   17.61
  14  20   2   -3.98   13.08
  20 -14   2  -14.47   18.97
  20 -14   2   53.37   22.11
 -20  14  -2    3.02   15.36
 -14 -20  -2   -3.14   13.63
  20 -14  -2   -7.76   18.80
  14  20  -2   12.20   14.86
  20 -14  -2   27.21   17.73
  14  20  -2   33.03   15.84
  20 -14   2   -3.34   18.59
 -14 -20  -2   11.51   17.93
 -20  14   2    6.89   18.35
 -14 -20   2    6.24   12.52
 -14 -20   2  -24.00   16.51
 -20  14   2    6.77   15.81
  14  20   2   10.82   17.11
 -14 -20  -4  -31.44   17.01
  20 -14  -4  -28.74   18.10
  14  20   4  -11.17   17.13
 -20  13  -1   42.23   19.99
 -20  13  -1   20.84   17.40
 -13 -20  -1    8.29   14.52
  13  20   1   28.32   10.79
 -13 -20   1   15.39    9.23
  20 -13   1   23.63   17.23
  20 -13  -1    3.29   17.69
  20 -13   1   32.49   20.03
 -13 -20  -1   15.19   12.29
 -13 -20   1   35.90   10.08
  20 -13  -1   13.82   17.51
  13  20   1   17.51   17.84
  13  20  -1   48.01   16.15
  20 -13   1    2.42   18.67
  13  20  -1   36.15   15.74
 -13 -20  -1   25.32   16.78
 -13 -20   1   26.92   16.21
 -20  13   1   42.31   17.55
 -13 -20   1   -0.59   13.65
  13  20   1   11.33   16.10
 -20  13   1   28.38   17.13
  13  20   3   31.33   17.98
 -20  13  -3    7.34   22.29
  20 -13  -3    4.55   15.27
 -20  13  -3   -3.20   17.16
  20 -13   3    0.89   18.82
 -13 -20  -3   -6.45   15.76
 -13 -20  -3   12.11   14.88
  13  20  -3    1.21   14.28
 -20  13  -3    9.26   15.33
  20 -13  -3   -2.24   16.94
  13  20  -3   -1.95   14.53
  20 -13   3    7.64   18.67
 -20  13   3   26.73   13.95
 -13 -20   3   -0.50   11.39
 -13 -20   3   10.19   15.34
 -13 -20  -5  -24.59   18.76
  20 -13  -5   20.05   19.72
  13  20   5  -49.86   20.11
 -20  12   0   -5.55   18.16
 -12 -20   0   13.06   13.61
  20 -12   0    6.93   16.10
  20 -12   0    2.63   18.74
  12  20   0   -2.30    6.83
 -12 -20   0    1.95   11.32
  20 -12   0  -29.82   17.74
  12  20   0    3.06   15.88
 -12 -20   0    2.27   16.67
  12  20   0  -21.78   15.39
 -20  12   0  -13.67   15.94
  12  20   0   -0.80    6.62
  12  20   2   30.09   16.93
 -20  12  -2  -18.05   20.91
 -20  12  -2   16.07   16.41
  20 -12   2    7.15   17.68
 -12 -20   2   42.67    8.86
 -12 -20  -2   -2.93   15.08
  12  20   2   11.23   12.53
 -20  12  -2   11.88   16.26
 -12 -20  -2   -0.55   13.58
  20 -12  -2    9.13   16.20
 -12 -20   2    2.11    9.86
  20 -12  -2   22.43   16.55
  12  20  -2   18.54   13.81
  12  20  -2   22.65   15.16
  20 -12   2   19.49   18.38
 -12 -20  -2   22.11   17.58
 -12 -20   2   11.73   15.99
 -20  12   2    8.69   15.12
 -12 -20   2   18.33   11.75
 -12 -20   4   -5.52   17.11
  20 -12   4  -19.52   20.14
 -12 -20  -4   10.49   16.92
  20 -12  -4    5.33   17.01
  12  20   4    0.77   17.77
 -20  12  -4  -25.12   14.27
  12  20  -4   -8.61   14.25
  20 -12   4    7.01   18.91
  11  20   1   -7.17   15.09
 -20  11  -1   11.03   19.03
 -20  11  -1   31.97   15.89
 -11 -20   1   18.34   12.86
 -11 -20   1   18.93   10.28
  20 -11   1   -7.09   16.29
 -11 -20  -1   30.50   13.79
  20 -11  -1   37.27   17.03
  11  20   1   17.16   10.58
 -11 -20  -1    1.93   12.91
 -11 -20   1   14.27   11.21
  11  20   1    9.66   16.40
  11  20  -1   -9.34   15.75
  20 -11   1    5.47   17.68
 -11 -20  -1   10.27   16.31
 -11 -20   1    7.79   15.56
 -20  11   1   -0.76   16.08
 -20  11   1   -1.37   16.21
 -20  11  -3  -14.48   22.36
  11  20   3   19.23   17.25
 -11 -20   3    6.33   10.77
  20 -11  -3   24.60   14.34
 -20  11  -3   12.49   16.41
  20 -11   3  -11.68   18.53
 -11 -20  -3   -2.63   15.86
  20 -11  -3   16.22   18.46
  11  20  -3  -11.94   13.44
 -11 -20  -3    5.48   15.58
 -20  11  -3  -27.91   14.87
  20 -11  -3   29.11   15.93
  11  20  -3   17.50   14.80
 -20  11   3   43.90   18.32
  20 -11   3   16.55   18.62
 -20  11   3   17.13   13.02
 -11 -20   3    0.69   15.62
 -11 -20  -5    5.15   18.25
  20 -11  -5  -24.79   19.24
  11  20   5   -8.16   19.78
  10  20   0   10.28   14.05
 -20  10   0   21.19   18.37
 -10 -20   0   33.35   13.79
  10  20   0   18.92    6.65
  20 -10   0   52.39   15.39
  20 -10   0   12.39   19.09
  10  20   0   13.23    6.56
 -10 -20   0   25.64   11.83
  10  20   0   38.20   16.50
 -10 -20   0   44.93   16.39
 -20  10   0   35.68   16.07
 -20  10  -2   20.49   20.17
  10  20   2    2.26   14.66
 -20  10  -2  -12.60   15.94
 -10 -20   2   21.58   12.08
 -10 -20   2    1.79   10.47
  20 -10  -2  -10.14   14.77
  20 -10   2   10.39   16.42
 -20  10  -2   27.85   15.99
 -10 -20  -2   23.77   14.55
 -10 -20  -2   16.37   15.07
  20 -10  -2   50.70   17.90
  20 -10  -2    7.53   15.43
  10  20   2    4.23   16.61
  10  20  -2   -7.43   15.20
  10  20  -2   10.20   13.47
  20 -10   2   26.74   18.03
 -10 -20  -2   23.89   16.88
 -10 -20   2   55.26   16.02
 -20  10   2   12.51   14.58
 -10 -20   4   88.45   18.84
  20 -10   4   54.78   19.98
  20 -10  -4   42.25   18.99
 -10 -20  -4   90.01   18.50
  20 -10  -4   63.97   17.43
  10  20   4   72.32   19.35
 -20  10  -4   44.28   14.86
  10  20  -4   61.22   15.47
 -20  10   4   56.55   20.87
 -10 -20  -4   71.19   19.43
 -10 -20  -4   83.98   18.12
  20 -10   4   68.62   19.91
  20 -10  -6  -32.25   20.20
 -20   9   1    5.85   16.03
 -20   9  -1   24.24   15.67
 -20   9  -1   52.52   19.34
   9  20   1   19.72   14.47
  20  -9   1   13.09   15.30
  -9 -20   1   -0.53   12.05
   9  20   1   18.24    9.48
 -20   9  -1   23.35   16.48
  -9 -20  -1   -5.78   13.97
  -9 -20  -1    5.11   13.77
  -9 -20   1   -0.81   11.73
  20  -9  -1   -6.02   16.45
   9  20   1   29.58   15.97
   9  20  -1   36.98   14.85
  20  -9   1   16.58   16.78
  -9 -20  -1   23.76   16.04
  -9 -20   1  -31.25   15.73
   9  20  -1    1.14   13.57
 -20   9  -3  -13.26   22.88
   9  20   3   -4.81   16.83
 -20   9  -3  -26.68   16.48
  -9 -20   3   23.04   11.72
  20  -9   3   26.73   17.64
  -9 -20   3  -17.60   10.80
  -9 -20  -3   -7.46   15.38
  20  -9  -3  -10.64   17.50
  20  -9  -3   -7.40   14.40
   9  20  -3    5.80   12.06
 -20   9  -3   13.16   14.86
   9  20  -3  -22.37   15.68
  -9 -20  -3   17.47   15.54
 -20   9   3   -8.20   17.65
  -9 -20  -3  -28.35   17.93
  20  -9   3   11.23   16.98
 -20   9   3   16.98   12.11
  -9 -20   3   22.42   16.59
  -9 -20  -5   17.34   18.76
  20  -9  -5   22.64   17.85
   9  20   5    5.52   19.84
 -20   8   0   11.68   17.85
   8  20   0   12.83   13.49
  20  -8   0   21.83   14.44
   8  20   0   -0.19    6.35
   8  20   0    3.66    6.35
  -8 -20   0   -1.15   12.84
  -8 -20   0    9.22   12.46
   8  20   0   33.43   16.01
  -8 -20   0    0.72   14.65
 -20   8  -2   21.02   19.90
 -20   8  -2   45.93   15.80
  20  -8   2   59.19   16.58
   8  20   2   31.83   15.69
   8  20   2   62.16   12.56
  -8 -20  -2   41.32   14.59
 -20   8  -2   37.55   15.49
  -8 -20   2   51.94   12.07
  20  -8  -2   16.96   18.07
  20  -8  -2   52.90   14.22
   8  20   2   79.80   17.95
  -8 -20  -2   75.90   16.16
   8  20  -2   45.93   15.66
  -8 -20   2   22.11   12.19
  20  -8   2    1.52   17.49
 -20   8   2   58.60   17.16
  -8 -20   2   38.91   16.40
 -20   8   2   48.18   14.44
  -8 -20   4   11.76   17.92
  -8 -20  -4  -11.37   16.63
  -8 -20   4   10.74   12.80
  20  -8   4    9.28   18.42
   8  20   4   28.57   16.47
  20  -8  -4   10.20   17.77
  -8 -20  -4   17.05   17.66
  20  -8  -4   21.35   16.14
 -20   8   4    8.70   19.28
   8  20  -4  -19.72   15.95
 -20   8  -4    4.66   14.07
  -8 -20  -4   30.19   17.93
  20  -8   4   38.62   18.07
 -20   7   1  -14.22   15.47
   7  20  -1  -11.26   12.71
 -20   7  -1   -4.07   17.75
  20  -7  -1  -12.28   13.19
  20  -7   1  -16.31   14.51
   7  20   1  -11.04   14.40
   7  20   1    4.71    9.55
 -20   7  -1   -6.71   15.61
  -7 -20  -1   -5.86   13.93
  -7 -20   1    6.32   12.88
  20  -7  -1   -7.25   16.03
  -7 -20   1   -6.10   11.91
   7  20   1  -15.83   15.95
   7  20  -1   -6.90   14.68
  -7 -20  -1   21.16   13.11
  -7 -20  -1   -9.74   14.60
  -7 -20   1    2.78   15.40
 -20   7   1    0.69   15.47
  -7 -20  -3   86.80   16.69
 -20   7  -3   60.48   22.02
  -7 -20   3   60.85   13.52
 -20   7  -3   70.67   16.51
  20  -7   3   46.07   16.93
   7  20   3   78.16   14.79
   7  20   3   34.70   16.47
  -7 -20  -3   68.52   16.55
  20  -7  -3   37.85   17.30
  20  -7  -3   50.11   14.15
   7  20   3   51.99   18.68
 -20   7  -3   61.30   15.81
   7  20  -3   74.03   12.25
   7  20  -3   41.14   15.31
 -20   7   3   38.98   17.72
  -7 -20  -3   78.13   17.93
  20  -7   3   59.40   17.91
 -20   7   3   42.85   12.12
  -7 -20   3   70.29   11.24
  -7 -20   3   48.83   18.25
 -20   7  -5   39.45   13.92
  -7 -20   5    8.66   18.69
  20  -7   5   25.04   18.87
   7  20   5   18.51   17.55
  -7 -20  -5   -5.25   18.39
  20  -7  -5    8.02   16.88
   7  20   5   28.87   19.88
 -20   7   5   16.82   20.65
   7  20  -5   -0.65   15.17
  -7 -20  -5   33.12   18.70
 -20   6   0   16.64   14.53
  20  -6   0    5.20   13.34
 -20   6   0   25.72   17.47
   6  20   0   29.59   13.30
 -20   6   0   22.26   16.07
   6  20   0   26.00    7.09
  -6 -20   0   -9.91   13.00
  20  -6   0    8.52   16.32
   6  20   0    9.89   14.84
  -6 -20   0    7.77   11.95
  -6 -20   0   16.30   14.76
  -6 -20  -2   34.36   14.39
 -20   6  -2   53.37   20.59
  -6 -20   2   46.22   12.76
  20  -6   2   29.13   15.42
   6  20   2   61.51   12.72
   6  20   2   44.34   15.58
  -6 -20  -2    8.65   14.59
  20  -6  -2    5.17   16.36
 -20   6  -2    3.56   14.94
  20  -6  -2   36.38   13.66
   6  20  -2   24.64   15.63
 -20   6   2   46.54   16.57
  -6 -20   2   25.38   16.15
   6  20  -2   19.13   11.92
  -6 -20   2   35.99   11.36
 -20   6   2   48.10   14.52
  -6 -20   4   -1.54   18.50
 -20   6  -4    3.96   18.47
  -6 -20   4   10.08   13.36
  20  -6   4    8.92   17.07
   6  20   4   -7.84   15.94
  20  -6  -4    9.74   17.03
  -6 -20  -4  -11.05   17.87
  20  -6  -4   -1.86   15.27
  -6 -20  -4   -0.79   15.59
   6  20   4   -3.56   18.35
 -20   6   4  -14.09   18.57
   6  20  -4   -1.34   14.65
  -6 -20  -4    0.86   16.91
 -20   6  -4  -10.70   13.94
  20  -6   4    2.47   18.21
 -20   5   1   -5.43   15.67
 -20   5  -1   -1.32   13.91
  -5 -20   1  -20.52   11.72
 -20   5  -1  -21.60   18.22
  -5 -20  -1   15.14   13.18
  20  -5  -1   19.13   12.45
   5  20  -1    2.05   12.25
  20  -5   1   -8.34   13.89
   5  20   1   -8.65   13.20
   5  20   1   -5.20   10.28
 -20   5  -1   18.38   15.26
  -5 -20  -1    7.81   14.21
  20  -5  -1   21.57   16.01
   5  20   1   -8.02   14.51
   5  20  -1  -19.24   15.07
  20  -5   1   -8.49   15.09
  -5 -20  -1   16.89   15.55
  -5 -20   1    7.02   14.96
 -20   5   1   -3.30   15.18
  -5 -20   3  -17.04   16.78
 -20   5  -3  -18.01   20.88
  -5 -20   3   -5.72   13.03
  20  -5   3   -6.29   15.51
 -20   5  -3   -8.73   14.60
   5  20   3    1.18   14.31
  -5 -20  -3  -14.13   16.70
  20  -5  -3   -9.03   16.58
   5  20   3   -8.21   15.15
  -5 -20  -3   15.97   14.63
  20  -5  -3    7.70   13.10
   5  20   3    9.87   16.23
 -20   5  -3   13.13   14.62
 -20   5   3   -2.96   17.16
   5  20  -3    2.74   14.93
  -5 -20  -3   16.20   15.71
  -5 -20   3    0.36    9.62
 -20   5   3   16.77   10.31
 -20   5  -5    6.33   13.96
  -5 -20   5   -5.76   18.88
 -20   5  -5  -18.70   20.14
  -5 -20   5   -7.37   15.11
  20  -5   5    7.20   19.14
  20  -5  -5    0.84   18.13
   5  20   5   17.79   17.97
  -5 -20  -5  -20.34   19.34
  20  -5  -5   -9.23   16.27
   5  20   5    5.65   20.38
 -20   5   5   17.85   19.57
  -5 -20  -5   -5.37   18.06
   5  20  -5  -16.87   15.68
 -20   4   0    5.74   13.82
 -20   4   0   20.15   16.59
  20  -4   0   -0.94   12.31
  -4 -20   0   -3.78   12.14
 -20   4   0   -9.87   14.60
   4  20   0  -12.11   12.95
  -4 -20   0   -2.66   13.38
   4  20   0    2.09    8.22
  20  -4   0    4.12   15.41
   4  20   0    2.79   14.62
  -4 -20   0  -21.32   15.16
 -20   4   2   16.21   13.43
   4  20  -2   12.13   11.03
 -20   4  -2   -4.44   18.93
  -4 -20   2   23.38   12.61
  20  -4   2   -3.60   14.39
   4  20   2   -2.84   12.71
  -4 -20  -2   19.00   14.88
  20  -4  -2   18.35   16.66
  20  -4  -2    6.04   11.86
  -4 -20  -2  -13.18   13.98
   4  20   2    5.98   14.14
 -20   4  -2  -16.30   15.03
   4  20  -2    2.05   14.50
  -4 -20   2   -0.42   10.92
  -4 -20  -2   13.74   15.79
 -20   4   2  -20.75   15.77
  20  -4   2   22.91   15.60
  -4 -20   2  -14.46   17.20
  -4 -20   4   27.90   18.43
 -20   4  -4  -20.62   17.81
  -4 -20  -4   10.94   16.25
  -4 -20   4  -16.51   14.39
  20  -4   4  -20.95   16.88
   4  20   4   -0.72   16.15
  20  -4  -4    0.77   16.67
  -4 -20  -4    4.80   17.76
  20  -4  -4  -12.83   14.46
   4  20   4  -12.87   17.61
 -20   4   4   16.51   17.84
  -4 -20  -4  -12.61   17.84
   4  20  -4   34.46   15.75
 -20   4  -4    5.79   13.93
  20  -4   4  -12.97   16.14
  -4 -20   6   32.04   16.73
 -20   3   1    8.84   15.38
 -20   3  -1   31.69   12.90
 -20   3  -1   31.30   17.77
  20  -3  -1   31.45   11.47
  20  -3   1   18.19   13.19
   3  20  -1   27.79   12.33
   3  20   1   24.53   10.71
 -20   3  -1   14.51   15.19
  -3 -20  -1   20.47   14.46
   3  20   1   35.47   12.86
  20  -3  -1   24.73   16.22
   3  20  -1   20.63   14.81
  -3 -20  -1   39.80   13.47
  20  -3   1   22.54   15.20
  -3 -20   1   24.90   16.16
 -20   3   1   10.66   14.12
  -3 -20   1   28.89   11.55
   3  20  -1   20.70    3.87
  -3 -20   3    3.05   17.60
 -20   3  -3   15.26   15.22
 -20   3  -3   19.76   20.51
  -3 -20  -3   17.14   14.43
  -3 -20   3   12.52   14.21
  20  -3   3    1.98   14.98
   3  20   3    9.04   14.25
  20  -3  -3    4.29   16.25
  -3 -20  -3   10.84   16.17
  20  -3  -3   13.78   12.24
   3  20   3    4.35   15.30
   3  20   3   14.42   17.21
 -20   3   3   -3.48   15.69
   3  20  -3   13.20   16.06
  -3 -20  -3   26.93   16.75
   3  20  -3   16.49    9.54
 -20   3   3    6.98   10.26
  -3 -20   5   34.70   19.38
 -20   3  -5    5.87   14.33
 -20   3  -5    6.09   19.05
  -3 -20   5   12.04   15.77
  20  -3   5    4.36   18.76
  20  -3  -5   25.57   16.95
   3  20   5   10.23   18.35
  20  -3  -5  -21.46   14.25
  -3 -20  -5   20.64   18.61
   3  20   5   30.57   18.12
 -20   3   5   11.89   19.31
  -3 -20  -5  -29.61   17.94
  -3 -20  -5   15.97   16.11
   3  20  -5  -15.38   15.55
 -20   2   0   -2.45   13.91
 -20   2   0  -25.88   17.33
  20  -2   0   28.43   11.54
  -2 -20   0   12.16   12.16
 -20   2   0   -0.75   15.02
   2  20   0   -5.25   11.98
   2  20   0    2.71    9.31
  20  -2   0   -5.28   15.41
   2  20   0   16.00   14.42
  -2 -20   0    2.15   15.41
 -20   2   2   44.02   13.50
  -2 -20   2   60.00   13.86
 -20   2  -2   39.40   18.91
 -20   2  -2   60.86   14.63
  20  -2   2   31.80   14.11
   2  20  -2   59.30   12.07
 -20   2   2   34.62   16.68
  -2 -20   2   36.19   10.81
  -2 -20  -2   29.86   13.97
   2  20   2   58.03   12.95
  -2 -20  -2   45.85   15.88
  20  -2  -2   49.41   11.24
  20  -2  -2   22.60   15.77
 -20   2  -2   60.50   15.72
   2  20   2   26.59   15.37
   2  20   2   52.66   13.98
   2  20  -2   22.90   15.55
  -2 -20  -2   53.90   16.04
 -20   2   2   60.18   15.68
  20  -2   2   34.10   16.15
  -2 -20   2   41.65   16.89
 -20   2  -4  -11.20   14.53
  -2 -20   4   -7.55   19.64
 -20   2  -4   19.97   17.26
  -2 -20   4   15.48   15.44
  20  -2   4   -6.68   16.18
   2  20   4    8.06   16.55
  20  -2  -4   21.91   16.69
  20  -2  -4    1.42   12.57
  -2 -20  -4  -12.19   17.61
  -2 -20  -4   -9.26   15.48
   2  20   4   -0.83   17.29
 -20   2   4  -20.73   17.51
  -2 -20  -4   15.58   17.30
   2  20  -4    2.84   15.20
  -2 -20   6  -13.85   17.62
  -2 -20   6   11.99   20.13
 -20   2   6    4.58   20.58
  -2 -20  -6  -11.71   18.51
  -1 -20  -1  108.12   15.15
 -20   1   1  159.84   17.13
 -20   1  -1  103.08   15.61
 -20   1  -1  125.17   19.81
  20  -1  -1   96.45   12.34
  20  -1   1   95.09   13.85
 -20   1   1   90.53   18.37
  -1 -20   1  129.97   13.97
   1  20   1  104.50   13.19
  -1 -20  -1  143.47   17.10
 -20   1  -1  124.05   17.67
   1  20  -1  144.74   13.84
  20  -1  -1  129.68   17.44
   1  20  -1  125.26   16.97
  20  -1   1  141.85   17.57
   1  20   1  100.71   15.02
   1  20  -1  115.54    9.21
  -1 -20   1  155.45   18.35
 -20   1   1  107.29   15.69
  -1 -20   3   -0.80   18.21
   1  20  -3   19.54    9.33
 -20   1  -3   18.24   15.05
 -20   1  -3   -7.80   19.20
  -1 -20   3  -21.56   15.35
  20  -1   3   21.01   14.49
 -20   1   3    8.64   18.30
  -1 -20   3    4.35    2.82
   1  20   3   21.65   15.32
  20  -1  -3    7.75   11.10
  20  -1  -3   14.19   15.37
  -1 -20  -3    0.74   16.74
   1  20   3   -3.87   15.73
 -20   1   3    3.29   15.25
   1  20  -3    6.40   15.26
  -1 -20  -3    3.09   15.84
   1  20   3    7.75   14.60
 -20   1  -3    0.67   14.77
  -1 -20  -3    3.54   14.51
  20  -1   3   16.75   15.28
 -20   1   3   21.30    9.62
  -1 -20   5    3.66   20.91
 -20   1  -5  -20.58   18.87
 -20   1  -5   28.25   14.56
  -1 -20   5  -13.04   16.67
  20  -1  -5   40.52   15.84
  20  -1   5  -16.01   18.50
   1  20   5   16.44   18.63
  -1 -20  -5  -19.06   19.65
   1  20   5   -0.86   17.38
 -20   1   5  -26.38   18.45
   1  20   5   -8.57   17.38
  -1 -20  -5  -42.33   18.16
   1  20  -5   18.28   16.14
 -20   0   0   38.76   13.84
 -20   0   0   40.26   16.21
  20   0   0   32.39   10.51
   0 -20   0   32.47   12.22
   0  20   0   23.68    9.92
  20   0   0   10.17   14.94
   0  20   0   60.22   16.21
   0  20   0   35.04   11.98
   0 -20   2   25.43   17.17
 -20   0   2   62.64   13.63
 -20   0  -2   44.14   13.87
  20   0  -2   42.00    9.59
   0 -20   2   77.89   15.41
 -20   0  -2   56.39   19.45
   0 -20  -2   61.84   14.27
   0  20  -2   53.82    6.28
 -20   0  -2   56.35   14.55
  20   0   2   48.66   13.48
   0 -20   2   47.43    6.84
 -20   0   2   47.50   17.17
   0  20   2   41.31   13.41
  20   0  -2   61.21   10.49
   0 -20  -2   57.77   16.36
   0  20  -2   50.07   11.52
  20   0  -2   30.21   15.84
   0  20   2   97.66   16.28
 -20   0  -2   59.88   15.38
   0  20  -2   66.42   15.62
   0 -20  -2   66.28   15.94
 -20   0   2   39.16   15.13
  20   0   2   70.95   15.84
   0  20   2   68.27   13.86
  20   0   4    7.08   16.73
   0 -20   4  -31.71   19.68
 -20   0  -4   16.27   14.22
 -20   0  -4    0.72   16.91
   0 -20   4   10.43   15.92
  20   0   4   -3.55   16.26
 -20   0   4  -10.71   19.16
  20   0  -4   -2.75   15.69
  20   0  -4   -8.07   10.58
   0  20   4   -9.74   17.57
   0 -20  -4  -19.87   18.04
   0  20   4   -0.81   16.85
 -20   0   4   23.06   16.81
   0 -20  -4   11.16   16.49
   0  20  -4  -26.62   16.08
   0 -20   6   10.70   21.27
   0 -20   6  -14.81   17.96
 -20   0  -6   19.35   14.79
 -20   0   6  -41.68   19.92
   0 -20  -6   24.40   17.43
   0  20  -6   -2.28   17.22
  -1  20   1   40.42   12.65
 -20  -1  -1   33.89   13.42
  20   1  -1   56.66    9.66
 -20  -1  -1   55.00   18.56
  20   1   1   57.29   11.29
   1 -20   1   40.13    9.14
 -20  -1   1   55.91   16.63
   1 -20  -1   32.48   15.72
  -1  20   1   59.27   12.36
  20   1  -1   77.88   15.29
 -20  -1  -1   18.09   15.44
  -1  20   1   37.32   15.38
  -1  20  -1   67.32   16.27
  20   1   1   54.31   15.21
  -1  20  -1   51.90   11.62
   1 -20  -1   35.80   15.91
  -1  20  -1   72.06    8.70
   1 -20   1   67.41   17.33
 -20  -1   1   36.50   15.51
 -20  -1   1   50.82   14.72
 -20  -1   3   -1.09    9.37
   1 -20   3   40.15   20.03
  -1  20   3    7.67   14.47
 -20  -1  -3    2.34   13.95
   1 -20   3  -19.86   15.89
 -20  -1  -3   51.39   20.32
  20   1   3   16.34   13.78
  -1  20  -3   16.68    9.70
 -20  -1   3   15.11   17.72
  20   1  -3   33.91    9.41
  -1  20   3   23.62   15.50
  20   1  -3   20.35   15.30
   1 -20  -3   -6.80   16.43
   1 -20   3   16.88    7.82
 -20  -1   3   26.37    7.66
  -1  20   3   22.54   16.00
 -20  -1   3    1.23   14.77
  -1  20  -3   31.61   16.50
   1 -20  -3   10.59   15.98
 -20  -1  -3    6.13   14.68
  20   1   3   41.31   15.29
   1 -20   5   -9.56   20.60
 -20  -1  -5   -3.37   18.70
   1 -20   5   -6.99   17.51
 -20  -1  -5  -13.28   14.63
  20   1  -5   -4.24   15.35
  20   1   5    7.82   16.59
 -20  -1   5  -25.14   17.94
  20   1   5    0.82   17.55
  -1  20   5    3.53   18.93
   1 -20  -5   -8.30   19.22
  -1  20   5    4.18   17.24
 -20  -1   5  -39.19   18.33
   1 -20  -5   22.92   17.60
  -1  20  -5   12.57   16.74
  -1  20   5   -0.84   16.99
 -20  -2   0   10.12   13.10
  -2  20   0    8.83   11.10
 -20  -2   0    4.00   14.80
  20   2   0    4.85    8.80
   2 -20   0    3.58    9.68
  -2  20   0    9.80   10.62
  20   2   0   24.93   15.08
   2 -20   2    0.80   17.35
 -20  -2   2    1.82   12.52
  -2  20  -2   -8.25    7.40
 -20  -2  -2    6.36   11.94
   2 -20   2    9.46   15.27
  20   2  -2   14.85    7.35
  -2  20   2   -9.39   13.02
 -20  -2  -2    6.91   18.02
 -20  -2  -2   10.71   13.84
  20   2   2    5.56   11.82
   2 -20   2   -8.60    9.11
  20   2  -2   -7.72    7.70
 -20  -2   2   10.91   16.53
   2 -20  -2   14.83   15.15
  -2  20   2    2.71   13.36
  20   2  -2   -4.15   14.43
  -2  20   2    1.44   15.38
  -2  20  -2    3.52   10.08
  -2  20  -2   -7.26   15.73
 -20  -2  -2    8.23   13.87
   2 -20  -2  -20.11   16.93
 -20  -2   2  -12.54   14.44
  20   2   2   -2.64   14.06
  20   2   4    1.56   16.02
   2 -20   4   -0.93   20.80
 -20  -2  -4  -19.59   15.00
 -20  -2  -4   22.67   16.69
   2 -20   4    8.21   16.47
 -20  -2  -4  -19.31   22.16
  20   2   4    6.84   15.42
  20   2   4    3.11   16.78
  20   2  -4    5.17   15.10
 -20  -2   4    9.47   18.29
  -2  20   4    8.46   17.15
   2 -20  -4  -12.71   18.23
   2 -20   4    2.10    9.97
  -2  20   4   43.54   17.53
 -20  -2   4   27.43   15.91
   2 -20  -4   25.55   16.54
  -2  20  -4   21.27   17.49
   2 -20   6   35.00   21.74
   2 -20   6  -20.14   19.07
  20   2   6    2.51   17.72
 -20  -2   6   -3.48   16.25
 -20  -2  -6   -8.64   15.31
 -20  -2   6   -7.36   19.10
   2 -20  -6  -11.70   17.30
  -2  20  -6   -7.40   18.02
 -20  -3   1  103.15   15.40
  -3  20  -1  114.13   13.09
 -20  -3  -1  128.77   16.38
 -20  -3   1   77.99   16.15
  20   3  -1  108.95    9.10
  20   3   1  123.00   12.28
  -3  20   1  120.52   14.93
   3 -20   1  133.08   12.11
   3 -20  -1  142.75   18.10
 -20  -3   1   89.76   17.99
  -3  20   1  100.80   15.22
  20   3  -1  132.53   17.03
 -20  -3  -1  133.49   16.92
  -3  20   1  122.31   17.74
  -3  20  -1  132.70   16.69
  20   3   1  107.46   16.73
  -3  20  -1  137.68   11.96
   3 -20  -1  133.60   18.81
   3 -20   1  164.56   20.07
  20   3   3   -9.13   15.81
 -20  -3  -3    5.61   15.22
   3 -20   3    1.76   19.65
 -20  -3   3    2.93    9.78
 -20  -3  -3  -12.54   14.51
   3 -20   3    2.12   16.21
  -3  20   3   16.92   14.49
  20   3   3    6.69   13.04
  20   3   3  -17.70   15.84
  20   3  -3   -1.73    5.70
  20   3  -3  -11.31   14.13
 -20  -3   3   -4.83   16.46
  -3  20   3    0.67   15.84
   3 -20  -3   17.92   17.07
   3 -20   3   -4.37   10.13
  -3  20  -3    7.55    9.69
 -20  -3   3   12.07    7.87
  -3  20   3  -36.20   16.26
 -20  -3   3    0.58   14.07
  -3  20  -3  -11.51   16.94
   3 -20  -3   14.21   16.29
  -3  20   5  -26.17   17.53
   3 -20   5   13.07   21.54
 -20  -3  -5   16.65   18.59
   3 -20   5   -4.14   18.56
  20   3  -5    3.31   15.30
  20   3   5  -16.17   18.00
 -20  -3  -5   22.39   15.35
  20   3   5   25.74   16.96
 -20  -3   5    2.58   17.12
  -3  20   5  -18.93   19.37
  -3  20   5   16.26   16.55
 -20  -3   5   16.25   17.37
   3 -20  -5   38.64   17.09
  -3  20  -5   23.72   18.05
 -20  -4   0   13.58   12.78
  20   4   0   -3.40    7.42
   4 -20   0    4.91   10.97
  -4  20   0   13.44   11.35
 -20  -4   0   16.06   14.78
  -4  20   0   17.36   11.81
  20   4   0  -15.71   14.09
   4 -20   0  -23.65   16.86
   4 -20   2   27.04   18.77
  -4  20  -2   26.99    9.12
  -4  20  -2   33.44   10.29
   4 -20   2   21.63   15.96
 -20  -4  -2   29.67   12.33
 -20  -4   2   34.76   13.41
  20   4  -2   22.08    3.16
  20   4   2   32.00   16.92
  20   4   2   21.41   11.38
  -4  20   2   26.95   14.41
   4 -20   2   20.72   10.65
   4 -20  -2   36.85   16.74
  20   4  -2   24.41   14.15
 -20  -4   2   37.70   16.36
  -4  20   2   51.72   14.63
 -20  -4   2   44.15    9.25
  -4  20   2   43.87   15.31
  -4  20  -2   46.70   16.39
   4 -20  -2   26.10   16.87
  20   4   2   59.25   15.42
 -20  -4   2   26.39   13.72
 -20  -4  -2   60.29   15.36
  20   4   4   20.77   16.21
   4 -20   4  -12.57   20.77
 -20  -4  -4   -7.66   16.50
   4 -20   4  -10.32   17.38
 -20  -4  -4   -7.96   15.16
  20   4   4   -0.68   15.27
  20   4  -4   13.17   13.96
  20   4   4   13.14   16.77
   4 -20  -4    3.46   18.13
  -4  20   4  -26.36   18.71
 -20  -4   4   16.38   17.05
  -4  20   4   -3.08   16.45
   4 -20   4   10.59   11.42
 -20  -4   4   -0.61   15.38
   4 -20  -4   24.29   17.01
  -4  20  -4  -10.12   18.88
   4 -20   6    8.66   21.79
  20   4   6  -16.96   19.01
 -20  -4   6    1.63   13.77
 -20  -4  -6   -6.78   15.62
 -20  -4   6   19.80   18.15
   4 -20  -6   -0.80   16.43
  -4  20  -6   -8.90   18.65
 -20  -5   1   29.11   12.75
 -20  -5  -1   33.43   13.52
   5 -20  -1   39.25   13.01
  20   5   1   29.03    9.54
   5 -20   1   41.11   11.77
  -5  20  -1   61.34   11.61
 -20  -5   1   22.88   11.21
  -5  20   1   34.39   13.39
  20   5  -1   43.38   14.97
 -20  -5   1   39.49   16.20
  -5  20   1   48.62   13.27
  -5  20   1   59.92   16.26
  -5  20  -1   33.25   16.20
  20   5   1   27.56   14.63
  -5  20  -1   49.20   11.26
   5 -20  -1   16.00   16.41
  20   5   3  -10.40   15.36
  -5  20  -3    3.67    9.63
   5 -20   3  -12.06   20.50
 -20  -5  -3   -0.72   15.11
 -20  -5   3   -1.95   10.27
   5 -20   3   -2.26   17.09
  20   5   3  -18.16   13.39
  20   5   3  -14.56   17.04
  20   5  -3    7.21   14.10
   5 -20  -3   -2.41   17.40
  -5  20   3   -5.08   14.53
  -5  20   3   -1.39   16.35
 -20  -5   3   -6.94   16.39
   5 -20   3  -17.21   11.75
  -5  20   3  -15.36   15.53
 -20  -5   3    2.66    7.89
 -20  -5  -3    2.22   13.86
 -20  -5   3   -1.09   14.11
  -5  20  -3   28.50   17.39
   5 -20  -3  -11.29   16.91
   5 -20   5   29.44   22.83
 -20  -5  -5    9.08   18.70
   5 -20   5    7.89   19.04
  20   5  -5    3.70   14.56
  20   5   5    0.80   17.37
  20   5   5   10.53   17.92
 -20  -5  -5  -54.01   16.60
  -5  20   5  -20.49   19.87
 -20  -5   5   -9.63   15.49
  -5  20   5   28.60   17.86
 -20  -5   5   -7.23   16.06
   5 -20  -5  -13.81   16.58
  -5  20  -5   31.43   19.08
   6 -20   0    9.59   17.46
 -20  -6   0   13.60   12.70
  20   6   0   20.31    5.84
   6 -20   0    9.32   12.46
 -20  -6   0    6.92   12.56
  20   6   0    8.83   14.10
  -6  20   0    8.37   12.50
  -6  20   0   21.94   14.45
  -6  20   0    8.35   11.91
 -20  -6   2    2.03   12.87
 -20  -6  -2   10.09   15.14
   6 -20   2   16.95   19.83
  -6  20  -2   11.45   10.05
   6 -20   2  -20.92   17.26
 -20  -6  -2   -4.96   11.69
   6 -20  -2  -10.45   13.78
  20   6   2    2.56   11.22
  20   6   2  -11.13   16.39
   6 -20  -2   10.74   17.15
   6 -20   2  -31.67   12.46
  20   6  -2    2.06   13.17
  -6  20  -2    9.78    9.81
  -6  20   2   -6.07   15.07
 -20  -6   2   -2.95   15.58
 -20  -6   2   -0.79    9.20
  -6  20   2   10.07   14.82
  -6  20   2   -7.35   13.50
  -6  20  -2   15.89   17.14
   6 -20  -2  -17.32   17.07
  20   6   2  -11.39   14.56
  20   6   4    9.96   16.67
   6 -20   4   19.31   21.43
 -20  -6  -4    5.51   15.75
 -20  -6  -4   -5.98   15.35
  20   6  -4   -4.44   13.38
  20   6   4   -6.06   15.66
  20   6   4  -12.93   17.73
  -6  20   4   38.68   18.27
 -20  -6   4   -5.42   16.50
  -6  20   4   18.10   16.04
   6 -20   4  -10.42   12.90
 -20  -6   4   14.22   14.46
  -6  20  -4   -1.77   18.85
   6 -20  -4   -5.99   16.66
   6 -20   4   15.15   18.56
  -6  20   6  -14.59   17.67
 -20  -6  -6   14.94   16.32
   6 -20  -6   19.54   16.83
  -7  20  -1   47.15   11.89
  -7  20   1   71.35   14.24
 -20  -7   1   63.85   13.24
 -20  -7  -1   31.01    9.51
   7 -20  -1   66.57   13.98
  20   7   1   61.38    9.71
   7 -20   1   59.88   13.41
 -20  -7  -1   51.01   14.34
 -20  -7   1   45.78   12.52
  20   7  -1   68.83   14.44
  -7  20   1   96.44   15.42
 -20  -7   1   43.45   15.26
  -7  20   1   53.86   16.00
  20   7   1   69.23   15.25
  -7  20  -1   76.85   12.49
   7 -20  -1   87.18   18.45
  20   7   3   11.02   15.63
   7 -20   3   21.49   20.79
   7 -20   3   -3.21   17.30
 -20  -7  -3   -1.49   15.30
 -20  -7  -3   -9.29   14.23
  -7  20  -3   11.29   10.06
  20   7   3   20.29   13.23
  20   7  -3    1.54   12.95
  20   7   3  -15.20   18.11
  -7  20  -3   -1.03    9.39
  -7  20   3   -3.62   16.78
   7 -20   3    1.40   12.80
 -20  -7   3   10.47   15.73
  -7  20   3  -11.72   16.45
 -20  -7   3   19.86    8.99
  -7  20   3   10.57   15.70
  -7  20  -3   -7.77   18.36
 -20  -7   3  -10.14   12.85
   7 -20  -3  -18.11   16.66
 -20  -7  -5   -8.14   18.27
   7 -20   5   11.10   20.01
  20   7   5   -7.29   17.87
  20   7   5    7.42   19.20
  -7  20   5    7.62   20.25
   7 -20   5  -12.17   23.18
 -20  -7  -5    1.56   16.19
 -20  -7   5   47.91   14.50
  -7  20   5   35.20   17.58
 -20  -7   5   33.40   15.33
   7 -20  -5    6.85   16.13
  -7  20  -5   32.54   20.89
   8 -20   0   77.02   18.27
 -20  -8   0   68.97   13.59
  20   8   0   53.67   16.58
  -8  20   0   91.79   13.82
   8 -20   0   89.33   14.33
 -20  -8   0   78.54   13.93
  20   8   0   58.24   14.57
  -8  20   0   80.32   14.19
  -8  20   0   78.47   16.05
 -20  -8   0   88.27   16.00
 -20  -8   2   64.71   13.76
   8 -20   2   58.34   21.16
  -8  20  -2   43.20   12.08
  -8  20  -2   58.17   11.14
 -20  -8  -2   42.29   15.61
  -8  20   2   55.96   14.95
   8 -20   2   74.38   18.07
 -20  -8  -2   39.34   12.34
   8 -20  -2   37.32   14.93
  20   8   2   60.52   11.94
  20   8   2   58.91   17.90
  20   8  -2   57.24   13.39
   8 -20   2   48.78   13.94
 -20  -8  -2   69.95   16.55
  -8  20   2   59.28   15.99
 -20  -8   2   56.98   11.19
 -20  -8   2   59.79   16.48
  -8  20   2   37.30   16.41
  -8  20  -2   64.65   18.69
   8 -20  -2   59.64   18.47
  20   8   2   77.06   15.21
  20   8   4  -21.30   16.41
   8 -20   4   29.86   21.77
   8 -20   4   18.65   19.36
 -20  -8  -4    8.81   16.08
  20   8  -4   27.97   13.27
  20   8   4   31.98   16.02
 -20  -8  -4   10.08   16.01
   8 -20  -4    5.44   18.68
  20   8   4   -9.88   18.27
  -8  20   4   36.42   18.87
 -20  -8  -4    5.69   19.28
 -20  -8   4    4.50   15.36
  -8  20   4   61.26   16.90
   8 -20   4   -8.94   14.14
 -20  -8   4   41.50   13.78
  -8  20  -4   15.01   19.32
   8 -20  -4   27.21   17.42
   9 -20  -1   42.63   17.82
   9 -20   1   32.82   20.05
   9 -20   1   61.31   18.04
 -20  -9  -1   39.74    9.43
 -20  -9   1   35.10   12.69
   9 -20  -1   90.85   15.80
  20   9   1   65.62   17.29
  20   9   1   50.88    8.63
   9 -20   1   68.24   14.63
  -9  20   1   69.63   15.74
 -20  -9  -1   43.72   15.09
  20   9  -1   55.07   14.22
 -20  -9   1   48.13   13.22
  -9  20  -1   57.38   12.74
  -9  20   1   76.69   16.39
  -9  20   1   56.13   15.82
  20   9   1   52.38   14.96
 -20  -9   1   52.40   15.59
  -9  20  -1   71.00   13.53
  20   9   3  -15.07   16.18
  -9  20  -3    1.83    9.64
   9 -20   3  -27.77   22.71
  -9  20   3   10.34   16.62
   9 -20   3  -12.72   18.92
  -9  20  -3    7.92   11.41
 -20  -9  -3   43.36   14.20
   9 -20  -3  -23.54   15.51
 -20  -9  -3  -21.57   15.52
  20   9   3   10.33   13.35
  20   9  -3  -11.23   13.02
  20   9   3    2.62   17.64
   9 -20  -3    2.58   17.75
  -9  20   3   12.96   17.57
 -20  -9  -3   -7.79   17.09
   9 -20   3  -14.53   14.67
  -9  20   3   11.09   15.98
 -20  -9   3    5.93   15.67
 -20  -9   3   23.67    9.44
  -9  20  -3  -43.70   19.90
   9 -20  -3  -28.56   17.74
 -20  -9   3    6.04   11.89
 -20  -9  -5  -37.93   18.65
  20   9   5   34.27   19.01
 -20  -9  -5   -3.26   16.39
  -9  20   5  -25.39   17.39
 -20  -9   5    3.67   13.01
   9 -20  -5  -12.83   16.80
  10 -20   0   15.94   18.51
 -20 -10   0   -3.60   14.64
 -10  20   0    3.09   13.99
  20  10   0    0.79   16.70
  10 -20   0   -5.34   14.33
 -20 -10   0    5.97   13.57
  20  10   0    2.49   13.02
 -10  20   0   10.94   14.41
 -10  20   0    3.14   15.88
  20  10   2   12.32   14.66
  10 -20  -2   -1.63   17.93
 -10  20  -2   17.77   12.70
 -20 -10   2   12.50   11.59
  10 -20   2    8.14   17.88
 -20 -10  -2   20.95   11.57
 -20 -10  -2   70.31   16.66
  10 -20  -2   22.89   14.89
  20  10   2    7.77   10.96
  20  10  -2   28.49   12.47
  10 -20   2   21.96   14.24
 -20 -10  -2   -9.31   16.46
 -10  20   2   32.53   15.90
 -10  20   2    2.10   16.69
 -20 -10   2  -12.42   11.13
 -10  20   2   19.35   16.81
 -10  20  -2    6.43   11.34
 -20 -10   2   11.14   15.44
  20  10   4  -20.62   16.47
  10 -20   4   11.21   22.58
  10 -20   4   34.62   19.54
 -20 -10  -4    5.38   15.36
  20  10   4   -9.53   15.41
  10 -20  -4   13.96   19.31
 -20 -10  -4  -21.81   16.84
  20  10   4    6.57   18.99
 -10  20   4   13.25   19.44
 -20 -10  -4    2.92   19.43
 -10  20   4   -2.23   16.63
  10 -20   4   22.71   15.00
 -10  20  -4   -4.94   20.66
  10 -20  -4   10.00   17.05
 -20 -11   1  -17.79   15.72
  11 -20  -1   28.55   19.15
  11 -20   1   57.89   20.85
  11 -20   1    5.57   18.07
 -20 -11  -1   31.62   15.42
 -20 -11  -1   14.25    8.39
 -11  20   1   25.84   15.32
 -20 -11   1   21.50   11.48
  20  11  -1   17.87   15.85
  11 -20  -1   25.06   15.44
  20  11   1    8.35   17.23
  20  11   1   22.72    8.20
  11 -20   1   11.45   15.00
 -11  20  -1   22.71   12.87
  20  11  -1   13.92   11.93
 -20 -11  -1    0.70   15.12
 -20 -11   1   18.99   13.03
 -11  20   1   16.40   15.63
 -11  20   1   10.81   15.83
 -11  20  -1   22.18   18.02
  20  11   1   14.28   13.41
 -11  20  -1    1.14   13.68
  11 -20  -3   20.17   18.26
 -20 -11   3   -3.31   11.02
  20  11   3  -26.78   15.75
  11 -20   3   -8.60   21.38
  11 -20   3   25.06   19.77
 -11  20  -3    2.13   12.58
 -20 -11  -3   -0.54   13.72
  11 -20  -3  -21.98   16.56
  20  11  -3   14.79   12.09
 -20 -11  -3   -4.00   16.02
  20  11   3   13.23   13.15
  11 -20  -3   12.41   19.42
  20  11   3   -2.73   17.54
 -11  20   3    3.36   16.73
 -11  20   3   20.99   17.65
 -20 -11  -3   -0.89   17.52
  11 -20   3   23.76   15.90
 -11  20   3   -2.98   16.14
 -20 -11   3   -3.21    9.23
 -20 -11   3  -22.94   14.50
 -11  20  -3   10.40   19.73
 -11  20  -3   -2.85   10.42
 -20 -11  -5  -21.61   18.67
  20  11   5   -4.92   17.76
 -11  20   5   -6.78   17.06
  11 -20  -5   20.08   17.55
  12 -20   0   17.89   20.48
 -12  20   0    5.40   14.82
 -20 -12   0   -2.21   15.71
  20  12   0   22.94   16.55
  12 -20   0    7.30   15.44
 -20 -12   0   -6.38   13.91
  20  12   0   11.76   12.76
 -12  20   0   -1.27   14.82
 -12  20   0  -26.43   17.84
  20  12   2   -6.14   15.15
 -20 -12   2   -3.53   15.09
  12 -20  -2  -33.39   20.14
 -12  20  -2   15.56   13.61
 -12  20  -2   -4.11   11.89
  12 -20   2   14.60   18.59
 -20 -12   2   21.97   10.93
 -12  20   2    8.88   16.37
 -20 -12  -2    7.47   11.19
  12 -20  -2    5.09   15.81
  20  12   2  -11.88   10.51
  20  12  -2   -0.40   12.01
  12 -20  -2    6.07   18.80
  12 -20   2  -29.68   15.69
 -20 -12  -2   12.17   16.34
 -12  20   2   14.95   17.85
 -20 -12   2   11.05   12.30
 -12  20   2   -8.39   16.65
  12 -20  -4   36.06   18.80
  20  12   4  -18.49   16.52
 -20 -12  -4   30.05   16.19
  20  12   4   -8.09   15.12
 -12  20   4   14.79   19.59
 -12  20   4   18.67   16.68
  12 -20   4   -6.70   16.88
 -20 -12   4    8.25   14.47
  13 -20  -1  -28.79   20.72
  13 -20   1  -37.75   22.09
 -20 -13   1    2.17   14.96
 -20 -13  -1    1.63    8.03
 -13  20   1   -8.48   16.00
 -20 -13  -1    6.96   16.09
  20  13  -1   -4.82   16.71
  13 -20  -1   -5.74   16.42
 -13  20  -1   -5.02   13.45
  20  13   1   36.35   18.06
  13 -20   1   24.11   16.46
  20  13  -1    2.00   11.61
 -20 -13  -1  -16.06   16.05
 -20 -13   1   23.28   13.76
 -13  20   1   13.46   15.90
 -13  20   1    8.00   17.24
 -13  20  -1   20.39   18.83
  20  13   1   -1.07   13.06
 -13  20  -1   -6.31   14.47
  13 -20  -3   10.17   19.27
 -13  20   3    4.44   17.85
 -20 -13   3   19.60   14.40
  20  13   3   -2.08   15.78
  13 -20   3    2.26   22.13
 -13  20  -3   -5.40   13.54
  13 -20   3   22.59   20.85
 -20 -13  -3   -1.07   13.77
  13 -20  -3  -12.18   17.26
 -13  20  -3    5.97   11.18
  20  13   3   -6.13   12.51
  13 -20  -3   -7.32   19.68
 -20 -13  -3   21.55   17.22
  20  13   3  -11.30   18.67
 -20 -13  -3    1.86   18.68
 -13  20   3   18.82   19.36
  13 -20   3   34.75   16.70
 -13  20   3   12.82   16.78
 -13  20  -3   -7.93   20.15
 -20 -13  -5   14.33   17.95
  20  13   5   -9.02   16.94
  13 -20   5   11.79   17.86
  14 -20   0   35.93   20.86
 -14  20   0  -14.61   16.31
 -20 -14   0   34.03   16.10
  20  14   0  -42.19   17.75
  14 -20   0  -21.12   16.97
 -20 -14   0  -13.06   15.33
  20  14   0   -6.64   11.85
 -14  20   0  -20.16   16.34
 -14  20   0  -12.03   18.60
  20  14   2   31.26   14.62
  14 -20  -2   16.34   20.40
 -14  20  -2   18.74   15.00
 -20 -14   2    6.43   15.76
  14 -20   2   20.86   22.83
 -20 -14  -2   22.54   11.69
  14 -20  -2   36.23   17.42
  14 -20  -2   26.16   19.86
  20  14   2   18.35   18.17
  14 -20   2   23.87   16.71
 -20 -14  -2    6.75   17.46
 -14  20   2   44.10   17.75
 -20 -14   2   29.15   14.06
 -14  20   2   25.92   17.04
 -14  20  -2   61.87   20.63
 -14  20   2    4.27   17.65
  14 -20  -4  -25.09   19.14
 -20 -14   4   10.24   14.06
  20  14   4    8.58   17.13
 -20 -14  -4  -19.32   16.47
  20  14   4   34.26   15.67
  14 -20   4   -0.74   18.03
 -14  20   4   17.98   16.18
 -15  20  -1   -0.70   15.31
 -20 -15   1   -3.70   15.86
  15 -20  -1    2.95   20.82
  15 -20   1   24.78   22.06
  15 -20   1   22.86   20.01
  20  15  -1   -0.83   16.78
 -20 -15  -1   11.11   16.46
  15 -20  -1    7.04   17.50
  20  15   1  -11.58   17.67
  15 -20   1   12.54   17.54
 -20 -15  -1   50.43   17.14
 -20 -15   1   22.83   15.32
 -15  20   1    7.63   17.24
 -15  20   1   22.45   18.02
 -15  20   1   13.93   16.21
  20  15   1  -13.62   13.63
 -15  20  -1   18.66   19.62
  15 -20  -3   -5.37   19.44
  20  15   3   17.49   15.97
 -20 -15   3   19.00   15.63
 -15  20  -3  -25.48   14.71
  15 -20  -3  -11.24   18.50
  15 -20   3   -6.03   18.28
 -15  20   3    7.27   19.78
 -15  20   3  -13.11   16.91
  15 -20   5   25.98   18.79
  16 -20   0   15.82   21.95
 -20 -16   0   57.28   16.55
  20  16   0   -9.63   18.24
  16 -20   0   18.20   17.21
 -20 -16   0   14.26   16.30
 -16  20   0   23.60   19.05
 -16  20   0   25.68   17.24
  20  16   2   -5.53   14.64
  16 -20  -2   -0.97   20.22
 -16  20  -2   -2.14   15.90
  16 -20   2  -10.39   22.61
  16 -20   2   10.49   20.34
 -20 -16   2    2.18   15.58
  20  16  -2   -7.32   17.04
 -16  20   2   -4.50   17.35
  16 -20  -2   22.78   17.53
  16 -20  -2   14.07   20.71
 -20 -16  -2   22.65   17.14
  16 -20   2  -14.70   18.87
 -20 -16  -2  -11.44   17.97
 -16  20   2   27.39   19.28
 -20 -16   2   10.29   15.17
 -16  20   2   -8.90   18.39
  20  16   4  -10.30   17.17
  16 -20   4   18.74   19.26
 -16  20   4   -3.80   16.67
 -17  20  -1    9.94   16.98
  17 -20  -1  -16.60   22.61
  17 -20   1  -10.21   23.14
  17 -20   1  -12.01   19.73
 -20 -17   1   -5.29   15.81
  20  17  -1   17.24   17.81
  17 -20  -1   22.78   18.08
 -20 -17  -1  -15.55   16.96
  17 -20   1  -30.57   18.85
  20  17   1   10.21   18.73
 -20 -17  -1  -21.62   17.91
 -20 -17   1   11.01   15.91
 -17  20   1   18.12   17.99
 -17  20   1  -10.36   18.05
 -17  20  -1   18.46   20.38
  20  17   3   -0.71   16.30
  17 -20  -3  -30.22   20.84
 -17  20  -3   22.28   15.85
 -20 -17   3   12.78   15.34
  17 -20   3   23.99   19.52
 -17  20   3   50.44   17.65
  18 -20   0   12.20   22.85
  18 -20   0   -2.72   19.48
 -20 -18   0  -10.35   16.49
  18 -20   0    0.86   18.74
  20  18   0   -7.24   18.18
 -20 -18   0   14.54   16.29
 -18  20   0  -22.70   20.51
 -18  20   0   -9.79   17.82
 -18  20  -2  -14.09   17.26
  18 -20  -2   44.57   22.36
  20  18  -2    1.69   17.35
 -20 -18   2   34.70   16.14
  18 -20   2   24.54   19.38
 -20 -18   2   -7.77   16.50
 -18  20   2    9.18   17.87
  20  18   4  -14.49   17.71
 -19  20  -1  -14.14   17.63
  19 -20  -1    8.68   22.83
  20  19  -1   41.95   18.71
 -20 -19   1  -17.83   16.54
  19 -20   1   -7.00   19.47
 -20 -19  -1    4.47   18.35
 -20 -19   1   20.74   17.06
 -19  20   1  -11.83   19.25
  19 -20  -3   -3.90   20.74
 -20 -19   3   32.79   15.99
 -19  20   3  -13.69   17.92
 -20 -20   0   27.96   17.32
  20 -20  -2    9.43   21.32
  20  20  -2   -1.75   18.01
 -20 -20   2   -9.77   16.26
 -20 -20   2   18.50   17.42
 -20  20   2  -17.24   19.01
  21 -20  -1   21.39   23.20
 -20 -21   1  -14.69   18.56
  21 -19   0    4.58   23.38
 -19 -21   0   -2.67   18.36
  21 -19  -2   20.30   21.12
  19  21  -2   12.06   17.94
 -19 -21   2  -15.30   15.96
 -21  19   2   17.68   18.15
 -19 -21   2  -16.62   17.92
  21 -18  -1   12.48   21.29
  18  21  -1    5.18   17.81
 -18 -21   1    4.40   15.39
 -18 -21  -1   33.21   18.64
 -18 -21   1   -1.66   17.67
 -21  18   1   -1.78   19.68
  21 -17   0  -46.22   19.42
  21 -17   0   13.88   21.69
  21 -17   0   -1.80   19.32
  17  21   0   -0.88   18.03
 -17 -21   0  -18.96   18.05
 -17 -21   0    2.98   15.55
 -21  17   0   -4.65   19.97
 -21  17   0   -1.74   18.12
  21 -17  -2   -9.23   19.64
  17  21  -2    5.56   16.93
  21 -17  -2    1.82   20.27
  17  21  -2   -5.19   16.37
 -17 -21   2   19.26   14.14
 -17 -21   2  -10.70   17.65
 -21  17   2   10.04   17.46
 -21  16  -1  -16.96   17.89
  21 -16  -1   25.85   21.34
  21 -16   1  -18.42   18.82
  21 -16   1  -14.34   22.69
  21 -16  -1   -0.91   19.62
  16  21  -1  -14.42   16.68
  16  21  -1   -9.48   16.99
  21 -16   1  -16.81   19.40
  16  21   1   -7.26   18.25
 -16 -21  -1   29.57   18.73
 -16 -21   1   16.24   14.29
 -16 -21   1    0.80   16.98
 -21  16   1  -24.70   18.78
 -21  16   1  -11.65   18.10
 -21  16  -1   -1.95   21.06
 -16 -21  -1   -8.49   16.29
 -21  16  -3   13.93   15.81
  21 -16  -3  -18.23   18.85
 -16 -21   3   17.14   13.64
 -16 -21   3   39.94   17.29
  21 -15   0  -10.93   20.96
  21 -15   0   21.82   18.13
  21 -15   0    7.79   19.13
  15  21   0    1.67   17.39
  15  21   0   -7.44   16.35
 -15 -21   0    9.15   17.27
 -15 -21   0  -13.29   14.28
 -21  15   0   13.22   19.41
 -21  15   0    8.40   17.75
 -21  15  -2  -30.56   22.36
 -21  15  -2  -13.36   17.27
 -15 -21  -2   -0.81   15.99
  21 -15  -2    3.33   17.29
  21 -15   2  -17.15   19.49
  21 -15   2  -10.34   22.18
 -21  15  -2   32.08   17.09
 -15 -21  -2   -5.29   13.60
  15  21  -2   -1.45   15.83
  21 -15  -2   33.21   18.86
  15  21  -2  -32.86   16.61
  21 -15   2    3.56   20.10
 -15 -21  -2   59.80   19.02
 -15 -21   2    0.61   13.65
 -15 -21   2   24.81   16.71
 -21  15   2    7.16   16.31
  15  21   2    9.70   18.02
  15  21   4  -16.81   16.43
 -15 -21  -4    5.92   17.22
 -21  14  -1   22.35   20.86
 -21  14  -1   15.58   17.32
 -14 -21  -1   22.68   15.47
  21 -14   1  -25.38   19.02
  21 -14  -1   16.69   18.84
  21 -14   1   -1.04   21.19
 -14 -21  -1    7.66   12.56
  21 -14  -1   18.32   19.29
  14  21   1   22.95   18.00
  14  21  -1   37.85   16.64
  21 -14   1  -10.28   18.71
  14  21  -1   27.63   16.31
 -14 -21  -1   14.70   17.35
 -14 -21   1   18.58   16.64
 -21  14   1   50.61   18.75
  14  21   1  -10.46   17.33
 -21  14   1   36.62   18.28
 -14 -21   1   30.93   13.90
 -21  14  -3   -4.22   17.55
  21 -14   3   18.77   19.72
  14  21   3   21.87   14.35
 -14 -21  -3   -5.82   15.63
  14  21  -3    5.22   14.90
 -21  14  -3   28.72   16.24
  21 -14  -3   52.24   17.95
  14  21  -3  -15.04   15.06
  21 -14   3  -24.33   19.63
 -21  14   3   -7.99   14.03
 -14 -21   3   -0.72   17.00
 -14 -21   3   19.81   12.31
 -13 -21   0   -2.65   13.93
  21 -13   0  -11.15   17.56
  21 -13   0   21.42   19.75
 -13 -21   0   -7.45   11.46
  21 -13   0   24.26   18.84
  13  21   0  -20.32   16.77
 -13 -21   0  -24.17   16.97
 -21  13   0    8.89   17.76
 -21  13   0   46.03   19.60
 -13 -21   2   -1.13   12.73
 -21  13  -2   32.66   21.04
 -21  13  -2  -16.22   17.40
  21 -13  -2    6.03   16.86
  21 -13   2    1.69   18.44
  13  21   2  -13.65   12.96
 -13 -21  -2  -11.62   16.24
 -21  13  -2   11.01   16.37
 -13 -21  -2   -2.24   14.11
  21 -13  -2   18.79   17.30
  13  21  -2   11.34   15.31
  13  21  -2  -11.64   15.58
  21 -13   2  -17.21   18.93
 -13 -21  -2   -9.04   18.05
 -21  13   2    0.87   18.35
 -13 -21   2   20.54   16.10
 -21  13   2    0.66   15.54
  13  21   2  -26.87   17.96
 -13 -21  -4   -0.76   17.04
  21 -13  -4   -3.99   17.19
 -21  13  -4   16.84   14.96
 -21  12  -1   69.16   21.44
 -21  12  -1   71.22   17.71
 -12 -21   1   50.52   14.26
 -12 -21   1   67.52   11.20
  12  21   1   60.70   11.22
  21 -12   1   28.81   18.10
  21 -12  -1   23.55   17.95
 -12 -21  -1   76.60   16.10
  12  21   1   70.83   11.17
 -12 -21  -1   31.50   13.18
 -12 -21   1   79.08   11.99
  12  21   1   67.40   18.81
  12  21  -1   74.70   17.26
  21 -12   1   40.63   18.71
  12  21  -1   44.71   16.02
 -12 -21  -1   56.11   18.37
 -12 -21   1   28.63   17.19
 -21  12   1   63.09   18.14
 -21  12   1   24.18   17.60
  12  21   1   78.65   17.08
 -21  12  -3   -1.07   21.96
  12  21   3   48.60   18.42
 -12 -21   3   17.67   11.85
  21 -12  -3   11.78   14.72
 -21  12  -3    9.87   17.16
  21 -12   3   33.48   19.26
 -12 -21  -3   10.71   16.07
  21 -12  -3    4.51   18.77
  12  21  -3   32.42   14.31
 -12 -21  -3  -12.39   16.30
 -21  12  -3   12.68   15.75
  21 -12  -3    1.44   16.66
  12  21  -3   47.52   15.67
  21 -12   3   13.10   19.24
 -21  12   3   23.61   13.84
 -12 -21   3   26.82   17.22
  21 -12  -5   -4.27   19.28
 -21  11   0   35.95   18.80
  21 -11   0  -23.80   16.39
 -11 -21   0   16.48   13.95
  21 -11   0   16.68   18.73
 -11 -21   0    7.01   12.27
  21 -11   0    0.81   18.26
  11  21   0   -1.58   16.25
 -11 -21   0    3.91   16.38
  11  21   0    4.84   15.26
 -21  11   0   20.10   16.15
 -21  11  -2   60.09   21.37
  11  21   2   -8.85   16.04
 -21  11  -2  -40.88   17.23
 -11 -21   2    1.59   12.31
 -11 -21   2   10.91   10.75
  21 -11   2   -8.68   17.09
  21 -11  -2  -15.02   16.06
 -11 -21  -2  -22.51   14.53
 -21  11  -2  -10.09   16.54
 -11 -21  -2   -9.03   15.50
  21 -11  -2   -8.54   18.65
 -11 -21   2    2.55   11.10
  21 -11  -2    6.08   15.46
  11  21   2   22.37   17.54
  11  21  -2    1.23   13.97
  11  21  -2   -5.76   15.78
  21 -11   2   27.51   18.60
 -11 -21  -2   25.29   17.70
 -11 -21   2   19.03   16.54
 -21  11   2   42.08   15.17
 -11 -21   4   -5.92   18.02
  21 -11   4   37.07   19.73
 -11 -21  -4    6.21   17.64
  21 -11  -4    1.49   16.78
 -21  11  -4    1.40   14.38
  11  21  -4  -19.84   15.50
 -21  10  -1   34.06   20.25
 -21  10  -1   34.97   16.36
  10  21   1   60.50   16.28
  21 -10   1   47.72   16.53
 -10 -21   1   35.74   13.06
  10  21   1   58.12   10.26
 -21  10  -1   26.32   16.33
 -10 -21  -1   34.08   15.88
 -10 -21  -1   23.11   13.95
 -10 -21   1   32.77   12.31
  10  21   1   52.08   18.08
  10  21  -1   40.32   16.03
  21 -10   1   40.27   18.08
 -10 -21  -1   25.99   16.65
 -10 -21   1   22.09   15.73
  10  21  -1   47.30   14.54
 -21  10   1   20.73   16.87
 -21  10  -3   26.70   23.01
  10  21   3    2.55   17.39
 -21  10  -3    0.80   16.47
 -10 -21   3   13.73   11.29
  21 -10   3    2.50   17.93
  10  21   3    6.63   13.56
 -10 -21   3   -4.58   11.50
 -10 -21  -3    6.90   16.05
  21 -10  -3   16.46   18.54
  21 -10  -3   14.40   15.60
  10  21  -3   34.90   12.90
 -21  10  -3    8.80   15.72
  10  21  -3   12.47   14.74
 -10 -21  -3   -4.01   15.97
 -21  10   3   -3.46   18.76
  21 -10   3   44.90   18.20
 -21  10   3    9.36   13.14
 -10 -21   3   47.92   17.81
  21 -10  -5   24.26   18.46
  10  21   5   -4.66   20.58
 -21   9   0    3.11   17.67
   9  21   0  -17.70   14.66
   9  21   0    4.97    5.89
  21  -9   0   -3.11   14.98
  -9 -21   0   -2.46   13.41
   9  21   0   -2.65    6.33
  -9 -21   0   -1.42   12.87
   9  21   0   14.67   15.86
  -9 -21   0    4.57   15.01
 -21   9  -2   18.27   20.66
 -21   9  -2   -5.33   15.39
   9  21   2  -33.19   16.17
  -9 -21   2  -13.88   11.56
  21  -9   2    0.74   16.40
   9  21   2  -15.14   12.14
  -9 -21  -2  -20.32   14.85
  -9 -21   2   14.05   11.76
 -21   9  -2   19.11   16.41
  21  -9  -2   27.87   17.80
  21  -9  -2    3.61   15.00
   9  21   2   13.83   17.76
  -9 -21  -2   26.29   16.06
   9  21  -2   16.43   15.23
  21  -9   2   -4.87   17.50
  -9 -21  -2   25.39   17.02
 -21   9   2  -29.25   18.03
  -9 -21   2   18.35   16.83
 -21   9   2   15.76   14.52
  -9 -21   4   13.80   18.02
  21  -9   4   15.91   18.56
   9  21   4   24.70   16.19
  21  -9  -4   -1.79   18.64
  -9 -21  -4   11.07   17.30
  21  -9  -4    9.76   16.07
   9  21  -4  -25.27   15.79
 -21   9   4    9.19   19.57
 -21   9  -4   -7.00   15.05
  -9 -21  -4    6.56   19.72
  21  -9   4   15.92   18.63
   8  21  -1   11.63   12.82
 -21   8   1   23.22   16.43
 -21   8  -1  -10.26   20.20
  21  -8  -1   18.02   14.49
   8  21   1    6.27   14.98
  21  -8   1   29.89   15.48
   8  21   1   18.74    9.91
 -21   8  -1  -18.14   16.88
  -8 -21  -1   16.51   13.62
  -8 -21   1    6.87   12.94
  21  -8  -1    3.86   16.63
  -8 -21   1   10.38   12.16
   8  21   1   37.92   16.82
  -8 -21  -1   11.90   13.62
   8  21  -1   -5.13   16.46
  -8 -21  -1   11.90   16.53
  -8 -21   1    2.94   16.04
 -21   8   1   19.25   16.75
  -8 -21  -3  -10.97   15.49
 -21   8  -3   25.34   21.82
  -8 -21   3  -18.49   12.62
 -21   8  -3    5.49   16.19
  21  -8   3   -4.71   18.00
   8  21   3    3.29   16.83
   8  21   3   -5.39   14.12
  -8 -21  -3   -2.84   15.74
  21  -8  -3   16.74   17.89
  21  -8  -3   -4.18   14.21
 -21   8  -3   -1.45   15.47
   8  21   3    8.13   18.08
   8  21  -3    3.81   12.35
   8  21  -3    1.41   15.38
 -21   8   3   -6.59   18.03
  -8 -21  -3  -20.20   18.49
  -8 -21   3  -14.04   11.14
  21  -8   3  -44.67   18.32
 -21   8   3  -38.59   12.78
  -8 -21   3   -2.24   17.95
   8  21   5    9.40   17.69
  21  -8  -5   -9.15   18.03
   8  21   5  -16.11   20.39
 -21   7   0    2.85   15.01
 -21   7   0   25.70   19.32
   7  21   0    5.01   13.33
  21  -7   0  -11.88   13.88
 -21   7   0  -24.40   16.75
  -7 -21   0    2.53   12.83
   7  21   0   -7.76    6.73
  21  -7   0   -5.31   16.92
   7  21   0   -1.50   15.83
  -7 -21   0   -4.15   13.02
  -7 -21   0    7.50   16.53
  -7 -21  -2    0.71   14.52
 -21   7  -2   17.04   21.08
 -21   7  -2  -14.76   15.36
  -7 -21   2   -4.08   12.30
  21  -7   2   -0.69   15.99
   7  21   2    1.47   15.66
   7  21   2    2.37   12.01
  -7 -21  -2    7.00   14.50
  21  -7  -2    6.30   17.34
 -21   7  -2   -7.53   16.40
  21  -7  -2   24.57   13.20
   7  21  -2   -8.62   15.47
 -21   7   2   -5.27   16.20
  -7 -21   2   12.89   11.85
   7  21  -2  -15.96   12.45
  -7 -21   2   46.00   16.90
 -21   7   2  -16.41   13.84
  -7 -21   4  -49.77   18.33
 -21   7  -4  -16.20   23.30
  -7 -21   4    2.09   13.01
  21  -7   4   -3.38   18.23
   7  21   4   36.22   16.22
  21  -7  -4   18.03   17.59
  -7 -21  -4   -2.43   17.49
  21  -7  -4    1.30   15.62
 -21   7   4   14.91   19.92
   7  21  -4   22.44   15.33
  -7 -21  -4  -17.30   18.45
  21  -7   4   28.56   18.61
  -6 -21   1   33.18   12.91
  -6 -21  -1   23.86   14.26
 -21   6   1   28.79   16.76
 -21   6  -1   39.60   19.19
   6  21  -1   19.35   13.10
  21  -6  -1   32.58   13.33
  21  -6   1   26.41   14.40
   6  21   1   42.37   14.43
   6  21   1   32.82   11.06
 -21   6  -1   43.03   16.54
  -6 -21  -1   30.98   14.04
  21  -6  -1   24.64   17.40
   6  21   1   34.34   16.50
   6  21  -1   21.13   15.27
  21  -6   1   33.94   16.55
  -6 -21  -1   38.09   16.80
  -6 -21   1   38.51   17.06
 -21   6   1   25.48   15.87
 -21   6  -3   -2.09   21.19
  -6 -21   3   11.91   13.66
  21  -6   3   -8.88   16.93
 -21   6  -3    6.12   15.23
   6  21   3   16.24   14.28
  -6 -21  -3    3.07   15.68
   6  21   3   27.69   16.73
  -6 -21  -3   31.24   17.05
  21  -6  -3   -0.80   17.13
  21  -6  -3   -6.02   14.24
  -6 -21   3    8.70   10.72
   6  21   3    1.74   17.39
 -21   6  -3    7.27   15.89
   6  21  -3   27.63   11.38
   6  21  -3   10.73   16.04
 -21   6   3   14.09   17.36
  -6 -21  -3   20.54   17.68
  21  -6   3    9.68   17.47
 -21   6   3   24.36   11.73
  -6 -21   3   10.73   17.31
 -21   6  -5    9.84   14.16
  -6 -21   5    6.80   19.88
  -6 -21   5   16.88   15.12
   6  21   5   18.91   19.05
   6  21  -5   -4.89   15.64
 -21   5   0   -2.05   15.15
 -21   5   0   -2.95   17.85
  21  -5   0   -1.03   13.35
  -5 -21   0   -1.73   12.80
   5  21   0    2.97   13.67
 -21   5   0    1.61   16.09
  -5 -21   0   -3.26   13.66
   5  21   0    6.75    7.84
  21  -5   0   -0.73   16.26
   5  21   0    2.95   16.37
  -5 -21   0    3.76   16.68
 -21   5   2   -4.99   14.54
   5  21  -2   33.45   12.44
 -21   5  -2   74.54   20.71
  -5 -21   2    3.49   12.97
  21  -5   2   47.48   15.60
   5  21   2   20.62   12.77
  -5 -21  -2   32.09   14.34
   5  21   2   24.76   15.11
  -5 -21  -2    5.24   15.21
  -5 -21   2   10.89   10.98
  21  -5  -2   13.60   17.13
  21  -5  -2   21.68   12.20
 -21   5  -2   18.69   15.50
   5  21  -2   20.24   15.69
  -5 -21  -2   25.03   17.20
 -21   5   2   42.16   16.61
  -5 -21   2   40.40   18.08
  -5 -21   4   -3.30   19.41
 -21   5  -4   41.24   22.55
 -21   5  -4    7.92   18.40
  -5 -21   4   -1.17   14.09
  21  -5   4    5.68   17.74
   5  21   4   -5.84   16.47
  21  -5  -4   -4.91   17.01
  -5 -21  -4   -9.84   17.75
  21  -5  -4  -25.74   14.82
   5  21   4    1.82   18.04
 -21   5   4   -8.31   18.73
   5  21  -4   18.64   15.67
  -5 -21  -4    8.87   17.75
 -21   5  -4  -14.07   14.28
  21  -5   4   -3.39   17.60
 -21   4   1   52.76   17.12
 -21   4  -1   61.58   15.33
 -21   4  -1   38.82   19.08
  21  -4  -1   44.77   12.51
  21  -4   1   44.12   14.32
   4  21  -1   54.68   13.12
   4  21   1   54.62   11.12
   4  21   1   45.62   14.98
 -21   4  -1   68.08   17.61
  -4 -21  -1   42.64   15.18
  -4 -21  -1   77.99   14.86
  21  -4  -1   32.98   16.72
  -4 -21   1   57.62   13.02
   4  21   1   28.79   16.54
   4  21  -1   37.86   15.73
  21  -4   1   28.58   16.31
  -4 -21   1   54.65   17.66
 -21   4   1   45.10   15.48
  -4 -21   3  -24.56   18.24
 -21   4  -3    1.03   20.91
  -4 -21   3   44.32   14.09
  21  -4   3   -4.86   15.82
   4  21   3  -17.12   14.70
  -4 -21  -3   14.12   16.72
  21  -4  -3  -21.37   17.10
  21  -4  -3   -1.99   13.01
   4  21   3   35.13   16.15
   4  21   3   -1.69   17.63
  -4 -21   3    3.66   10.35
 -21   4  -3    5.87   14.92
   4  21  -3   13.06   15.86
 -21   4   3   11.89   17.16
  -4 -21  -3   -3.35   16.98
   4  21  -3   26.09   10.42
 -21   4   3  -14.35   10.55
  -4 -21  -3   11.29   15.29
  -4 -21   5   23.22   20.67
 -21   4  -5    6.08   14.23
 -21   4  -5   10.74   19.37
  -4 -21   5    5.28   15.60
  21  -4   5  -18.96   18.83
  21  -4  -5   27.09   18.18
   4  21   5   19.03   18.43
 -21   4   5   53.48   20.08
  -4 -21  -5   64.20   18.90
   4  21  -5   16.55   16.21
  -3 -21   0    9.01   12.74
 -21   3   0    0.66   14.48
 -21   3   0   -5.79   16.91
 -21   3   0  -21.51   17.19
   3  21   0   12.47   12.76
  -3 -21   0  -11.61   15.03
   3  21   0    2.62    8.83
  21  -3   0  -11.58   12.18
  21  -3   0   -3.55   16.33
   3  21   0  -11.71   15.60
  -3 -21   0   27.25   15.34
  -3 -21   2   44.81   11.77
 -21   3   2   22.79   13.55
  -3 -21  -2   28.06   14.43
 -21   3  -2   70.12   20.31
  -3 -21   2   64.60   14.98
   3  21  -2   51.41   12.29
 -21   3  -2   31.96   15.73
  21  -3   2   37.20   14.72
 -21   3   2   50.78   19.23
   3  21   2   31.76   13.30
  -3 -21  -2   55.19   16.38
  21  -3  -2   34.27   16.79
  21  -3  -2   59.81   12.23
   3  21   2   47.74   14.90
 -21   3  -2   51.63   15.62
   3  21   2   46.56   16.34
   3  21  -2   51.68   15.83
  -3 -21  -2   45.17   17.62
  21  -3   2   45.20   17.07
 -21   3   2   23.81   15.76
  -3 -21   2   48.47   18.61
  -3 -21   4   11.24   19.75
 -21   3  -4   12.47   23.95
 -21   3  -4   25.22   17.78
  -3 -21   4    1.92   15.28
  21  -3   4   13.17   17.16
   3  21   4   -4.42   16.66
  21  -3  -4    7.00   16.80
  21  -3  -4   35.44   14.39
  -3 -21  -4   -4.17   17.97
   3  21   4  -28.15   18.18
 -21   3   4   38.60   18.57
   3  21  -4   14.68   16.45
  -3 -21  -4   17.33   18.22
 -21   3  -4   21.84   15.09
  -3 -21   6  -16.69   17.40
 -21   2   1  110.42   18.31
 -21   2  -1  141.47   17.22
 -21   2  -1  113.29   21.34
  21  -2  -1  130.33   13.93
  -2 -21   1  142.09   14.74
  21  -2   1  122.79   15.03
   2  21  -1  117.19    8.70
   2  21  -1  151.28   15.13
   2  21   1  151.02   13.76
  -2 -21  -1  125.63   17.18
  -2 -21  -1  155.20   16.82
 -21   2  -1  119.98   18.02
  21  -2  -1  134.94   18.60
   2  21   1  152.33   15.88
   2  21  -1  160.28   17.91
  21  -2   1  180.48   18.87
  -2 -21   1  147.08   18.88
 -21   2   1  125.69   17.72
  -2 -21   3   29.67   18.77
   2  21  -3    5.64    9.56
  -2 -21  -3    0.74   14.91
 -21   2  -3  -25.34   14.89
 -21   2  -3   14.24   19.70
  -2 -21   3   30.80   14.51
  21  -2   3    1.31   15.40
 -21   2   3   29.35   19.46
   2  21   3    9.39   14.65
  21  -2  -3   16.66   15.93
  -2 -21  -3    0.76   16.30
  21  -2  -3   -6.95   12.31
   2  21   3   -8.27   16.73
   2  21   3   -2.97   15.94
   2  21  -3   -8.12   16.01
 -21   2   3   18.20   15.99
  -2 -21  -3   -2.46   16.42
  21  -2   3    3.08   15.99
 -21   2   3  -20.24   10.00
  -2 -21   5    0.93   21.63
 -21   2  -5  -12.51   15.24
 -21   2  -5   -5.25   19.29
  -2 -21   5    1.44   16.34
  21  -2   5   20.95   19.12
  21  -2  -5   -7.22   17.49
   2  21   5  -21.93   19.00
   2  21   5   32.90   18.91
 -21   2   5   10.16   18.91
  -2 -21  -5   -6.26   18.69
   2  21  -5   -5.24   16.13
  -1 -21   0    1.11   12.37
 -21   1   0   -8.19   13.67
 -21   1   0    5.70   16.72
  21  -1   0   -9.72   11.26
 -21   1   0    6.22   15.87
   1  21   0   -9.45    9.69
   1  21   0  -11.32   12.47
  21  -1   0  -31.41   15.95
   1  21   0   19.01   15.15
  -1 -21   0   -0.76   14.98
 -21   1   2    1.93   14.18
  21  -1  -2    7.61   10.11
  -1 -21   2   -6.47   14.18
 -21   1  -2   11.82   18.83
 -21   1  -2   12.19   14.46
  21  -1   2    9.21   13.33
   1  21  -2    8.81   11.01
 -21   1   2  -12.03   18.43
   1  21   2    7.78   13.18
  -1 -21  -2   -9.76   15.96
  21  -1  -2   -4.61   10.41
  21  -1  -2   35.96   15.54
   1  21   2    0.77   16.19
 -21   1  -2   18.87   15.12
  -1 -21  -2   -1.35   14.02
   1  21  -2   15.48   15.63
   1  21   2    7.23   14.03
  -1 -21  -2   24.18   17.18
  21  -1   2    7.20   16.06
 -21   1   2   29.66   15.06
  -1 -21   2   27.79   18.10
 -21   1  -4   32.18   15.19
  -1 -21   4   17.97   20.25
 -21   1  -4    6.68   17.25
 -21   1  -4   23.55   23.66
  -1 -21   4   -2.08   15.95
  21  -1   4   -0.74   16.65
 -21   1   4    2.84   20.25
  21  -1  -4   -9.57   16.20
  21  -1  -4   18.42   11.74
   1  21   4   -3.04   17.03
  -1 -21  -4  -35.67   18.64
   1  21   4   15.39   17.48
 -21   1   4  -23.11   17.31
   1  21  -4   23.52   16.80
  -1 -21  -4  -38.01   18.25
  21  -1   4   38.59   18.01
  -1 -21   6    5.95   21.68
  -1 -21   6   -5.70   17.78
   1  21  -6    2.30   16.93
 -21   0   1   64.70   16.58
 -21   0  -1   72.50   15.00
 -21   0  -1   65.01   19.09
  21   0  -1   60.13   11.57
  21   0   1   66.15   13.01
 -21   0   1   90.15   18.04
   0 -21  -1  104.37   16.65
   0  21   1   92.48   13.03
  21   0  -1   96.63   17.21
 -21   0  -1   93.60   17.43
   0  21  -1   95.38   13.26
   0  21  -1   88.66   17.22
  21   0   1   92.06   17.00
   0 -21  -1  132.07   18.30
   0  21   1   86.94   14.08
   0  21  -1   81.57    9.17
   0 -21   1   72.76   17.99
   0 -21  -1   88.75   14.60
 -21   0   1   87.96   15.38
 -21   0   3    3.56    9.40
   0 -21   3   15.51   19.24
 -21   0  -3   16.97   14.67
   0 -21   3    1.33   15.28
 -21   0  -3  -18.19   21.47
   0  21  -3   11.49   10.12
  21   0   3   19.07   14.62
 -21   0   3  -17.94   18.06
   0 -21   3   -5.00    4.88
  21   0  -3   17.66   10.35
   0  21   3   -6.44   15.42
  21   0  -3   -9.58   16.13
   0 -21  -3  -11.69   17.50
 -21   0   3    0.52    7.78
   0  21   3   -2.41   16.31
 -21   0   3    0.66   15.84
   0  21  -3   -9.11   15.84
   0 -21  -3   21.68   16.90
   0  21   3  -10.90   15.24
 -21   0  -3    7.11   15.15
  21   0   3   21.06   16.32
   0 -21   5   25.42   21.17
 -21   0  -5  -20.73   19.11
 -21   0  -5   33.67   14.92
   0 -21   5    6.96   16.71
  21   0  -5   18.18   15.97
 -21   0   5   -0.96   19.68
  21   0   5   48.13   18.82
   0  21   5   13.42   19.32
   0  21   5  -32.81   19.38
 -21   0   5  -12.00   19.14
   0 -21  -5   37.33   18.19
   0  21  -5  -13.37   17.28
 -21  -1   0   -3.65   13.70
 -21  -1   0   27.37   16.54
  21   1   0    4.99   10.18
  -1  21   0    7.02   10.47
  21   1   0  -11.18   15.44
  -1  21   0  -11.76   14.39
  -1  21   0    8.29   11.90
   1 -21   2    6.59   17.56
  -1  21   2   -7.78   14.42
 -21  -1   2   19.29   13.63
 -21  -1  -2   -7.62   13.07
   1 -21   2   24.09   15.25
  21   1  -2    1.30    8.76
  -1  21  -2    6.71    6.67
 -21  -1  -2  -17.12   19.63
 -21  -1  -2    8.63   13.84
  21   1   2    4.45   12.21
   1 -21   2   -4.73    7.26
 -21  -1   2    3.34   17.47
  21   1  -2   -6.71    9.70
  -1  21   2   -1.08   13.95
   1 -21  -2   10.13   16.02
  21   1  -2   -8.99   15.84
  -1  21  -2   -7.70   10.97
  -1  21   2   13.59   15.78
  -1  21  -2  -12.05   16.49
   1 -21  -2    8.56   15.88
  21   1   2    8.40   15.17
 -21  -1   2  -19.69   15.59
  21   1   4   -3.24   17.12
   1 -21   4    7.54   20.82
 -21  -1  -4   12.29   15.12
 -21  -1  -4   -2.91   16.92
 -21  -1  -4   -6.67   22.45
   1 -21   4   12.69   17.10
  21   1   4    3.55   16.30
 -21  -1   4   11.08   19.15
  21   1  -4    9.01   15.79
  -1  21   4   24.11   16.75
   1 -21  -4   21.72   18.55
  -1  21   4   18.45   17.30
 -21  -1   4   20.28   16.99
  -1  21  -4  -15.87   17.50
   1 -21  -4   15.64   17.38
   1 -21   6  -22.90   22.81
   1 -21   6   -1.74   18.98
 -21  -1   6   37.34   17.61
 -21  -1  -6   -2.95   15.09
 -21  -1   6    9.46   19.57
   1 -21  -6  -22.21   18.27
  -1  21  -6  -17.94   18.08
 -21  -2   1   30.65   14.22
  -2  21   1   26.00   12.94
 -21  -2   1  -18.05   15.97
 -21  -2  -1    1.24   14.26
 -21  -2  -1   -1.60   17.64
  21   2  -1   11.09    8.09
  21   2   1   30.41   10.78
   2 -21   1   27.90    9.47
 -21  -2   1   22.79   16.39
   2 -21  -1   10.47   16.65
  -2  21   1   27.26   12.06
  21   2  -1   29.38   15.60
 -21  -2  -1   36.81   15.69
  -2  21   1   -2.96   14.90
  -2  21  -1   17.90   15.07
  21   2   1   46.35   15.10
  -2  21  -1   27.39    9.46
   2 -21  -1   24.11   16.56
   2 -21   1   40.32   17.59
  -2  21  -1    0.46   11.19
 -21  -2  -3   -9.45   15.16
   2 -21   3  -24.18   20.51
 -21  -2   3    1.53   10.22
  -2  21   3  -11.59   14.57
 -21  -2  -3   23.92   15.02
   2 -21   3  -30.52   16.85
 -21  -2  -3  -47.24   20.76
  21   2   3    8.73   13.99
  21   2  -3    7.95    7.44
 -21  -2   3    4.32   17.36
  -2  21  -3   -4.59    9.98
  21   2  -3   -9.01   15.38
  -2  21   3   -8.07   16.10
   2 -21  -3   15.97   17.85
   2 -21   3    2.69    9.01
 -21  -2   3   12.35    8.22
  -2  21   3    7.82   16.77
  -2  21  -3   14.19   16.96
 -21  -2   3  -16.29   15.01
   2 -21  -3   16.69   17.12
  21   2   3  -19.88   15.20
   2 -21   5  -35.70   22.11
 -21  -2  -5  -14.45   18.61
   2 -21   5   42.17   18.46
  21   2  -5  -14.16   15.93
 -21  -2  -5   -8.12   15.67
  21   2   5   -9.23   17.89
  21   2   5  -33.88   18.67
 -21  -2   5  -16.63   19.28
  -2  21   5  -18.26   20.31
  -2  21   5   -0.86   17.27
 -21  -2   5    8.25   18.08
   2 -21  -5   34.45   18.02
  -2  21  -5   14.34   17.81
 -21  -3   0   -4.09   12.82
  -3  21   0   -3.08   11.68
 -21  -3   0   -9.14   16.94
  21   3   0    5.33    8.56
   3 -21   0    3.56   10.63
  21   3   0   12.56   15.16
  -3  21   0    6.01   11.22
   3 -21   2   25.83   18.85
  -3  21  -2   16.69    8.30
 -21  -3  -2   37.39   12.48
 -21  -3   2   24.87   13.80
   3 -21   2    0.68   16.01
  21   3  -2   10.71    5.43
  -3  21   2   23.56   14.44
  21   3   2   25.33   11.91
  21   3  -2    9.79    5.44
   3 -21   2    3.79    9.83
   3 -21  -2   -6.02   17.05
 -21  -3   2   16.13   17.02
  21   3  -2   24.75   15.82
  -3  21   2    6.82   14.54
 -21  -3   2   31.35    9.65
  -3  21   2   34.61   15.83
  -3  21  -2   17.07   16.71
   3 -21  -2    1.56   16.06
  21   3   2    5.48   14.92
 -21  -3  -2   -8.03   16.04
  -3  21  -2   16.09   10.43
 -21  -3   2   22.74   13.77
  21   3   4  -12.04   17.09
   3 -21   4  -15.81   21.63
 -21  -3  -4    5.22   15.71
 -21  -3  -4  -10.67   16.46
   3 -21   4    5.57   18.04
 -21  -3  -4   16.66   23.08
  21   3   4  -16.64   17.84
  21   3   4   11.06   15.88
  21   3  -4    4.55   14.57
 -21  -3   4  -19.44   18.44
   3 -21  -4   24.00   18.82
  -3  21   4  -11.29   17.84
  -3  21   4    1.63   16.95
 -21  -3   4   -2.64   15.97
  -3  21  -4   -2.53   18.25
   3 -21  -4    6.47   17.78
   3 -21   6   37.27   23.01
  21   3   6   -5.37   18.97
 -21  -3   6  -16.89   17.18
 -21  -3  -6   21.44   15.47
 -21  -3   6  -14.55   19.54
   3 -21  -6  -34.96   17.67
  -3  21  -6   -4.40   18.38
   4 -21   1  174.16   22.46
 -21  -4   1  202.81   17.48
  21   4  -1  120.17    9.57
  21   4  -1  123.72   10.01
 -21  -4   1  177.20   18.79
 -21  -4  -1  169.33   17.21
  -4  21  -1  163.63   14.66
   4 -21  -1  191.26   16.10
  21   4   1  173.44   13.78
   4 -21   1  200.97   14.68
  -4  21   1  208.83   17.10
   4 -21  -1  175.63   20.03
 -21  -4   1  151.61   14.57
 -21  -4   1  199.73   19.39
  -4  21   1  176.33   16.54
  21   4  -1  167.25   18.63
  -4  21   1  197.18   19.22
  -4  21  -1  180.63   19.09
  21   4   1  187.60   18.70
  -4  21  -1  167.62   13.72
   4 -21  -1  204.99   20.51
  21   4   3  -36.35   16.50
   4 -21   3  -22.62   21.28
 -21  -4  -3  -14.96   15.64
 -21  -4   3  -14.99   10.57
 -21  -4  -3    3.98   14.24
   4 -21   3   41.65   18.09
  -4  21   3  -12.54   15.40
  21   4   3   14.67   13.50
  21   4   3  -11.53   17.42
  21   4  -3    7.22   14.78
   4 -21  -3   -8.24   17.41
  -4  21   3   -2.79   16.54
 -21  -4   3   -4.14   17.28
   4 -21   3  -12.06   11.37
 -21  -4   3  -12.75    9.05
  -4  21   3  -20.84   16.49
  -4  21  -3    1.43    9.91
  -4  21  -3   17.26   17.08
 -21  -4   3   -5.34   14.95
   4 -21  -3  -16.58   17.62
   4 -21   5   39.55   22.30
 -21  -4  -5  -11.74   18.98
   4 -21   5   -2.63   18.81
  21   4  -5   -3.98   15.28
  21   4   5   39.23   17.81
  21   4   5   14.22   18.73
 -21  -4  -5    3.07   15.54
  -4  21   5    0.94   20.14
 -21  -4   5   19.26   17.44
  -4  21   5   -3.37   17.01
 -21  -4   5  -23.24   16.94
   4 -21  -5   10.66   17.48
  -4  21  -5   -0.91   20.18
 -21  -5   0    4.52   13.22
  21   5   0   -3.72    6.87
   5 -21   0    0.45   12.20
  -5  21   0   22.16   12.18
 -21  -5   0   13.15   16.05
  21   5   0   12.01   14.70
  -5  21   0   -5.87   12.15
  -5  21   0  -12.91   16.08
   5 -21   0   -7.39   18.36
 -21  -5  -2   -5.23   15.44
   5 -21   2    9.05   20.06
  -5  21  -2   12.26    9.55
   5 -21   2   24.71   16.87
 -21  -5  -2   -0.43   11.77
 -21  -5   2   17.59   13.47
  -5  21  -2   10.20   10.11
  21   5   2    4.07   16.36
  21   5   2   -3.08   11.63
   5 -21   2    2.78   11.44
   5 -21  -2  -11.76   18.39
  -5  21   2   14.21   14.65
  21   5  -2    7.33   14.10
  -5  21   2   12.69   14.62
 -21  -5   2   44.06   15.93
 -21  -5   2   -7.56    9.42
  -5  21   2   -0.76   16.39
  -5  21  -2  -13.69   17.13
   5 -21  -2   -2.38   16.62
  21   5   2   -9.36   15.12
 -21  -5   2  -11.05   13.54
  21   5   4    5.58   16.49
   5 -21   4  -31.06   22.45
 -21  -5  -4  -11.89   16.56
   5 -21   4  -10.97   18.81
 -21  -5  -4   33.85   16.36
  21   5  -4  -18.07   14.45
  21   5   4  -11.64   15.70
  21   5   4   30.72   17.96
   5 -21  -4    0.91   18.80
  -5  21   4   27.34   18.29
 -21  -5   4   -1.68   17.16
  -5  21   4  -21.68   16.89
 -21  -5   4  -11.08   15.55
  -5  21  -4   19.83   18.80
   5 -21  -4   -1.59   17.34
  -5  21   6  -23.28   18.56
   5 -21  -6   -3.30   16.90
 -21  -6   1  113.42   15.61
 -21  -6  -1  111.63   16.14
   6 -21  -1  154.05   15.89
  21   6   1  143.48   12.40
   6 -21   1  122.30   15.14
 -21  -6   1  150.93   14.64
  21   6  -1  133.25   17.07
  -6  21  -1  127.22   13.91
  -6  21   1  125.95   16.57
 -21  -6   1  141.51   19.63
  -6  21   1  145.85   16.00
  -6  21   1  128.04   18.68
  21   6   1  112.45   17.49
  -6  21  -1  125.13   13.90
   6 -21  -1  140.01   20.28
  21   6   3  -31.67   16.37
   6 -21   3    9.91   20.78
  -6  21  -3    5.07    9.99
 -21  -6  -3    2.31   16.20
 -21  -6   3   -4.42   11.83
   6 -21   3  -37.85   18.97
 -21  -6  -3   11.10   13.95
  -6  21  -3    0.37    9.83
  21   6   3  -11.16   13.34
  21   6   3    1.73   17.62
  21   6  -3   20.75   13.89
   6 -21  -3  -13.61   18.23
  -6  21   3   -9.42   16.81
  -6  21   3   -9.18   15.48
   6 -21   3    7.79   12.98
 -21  -6   3   -4.00   17.01
  -6  21   3   13.88   17.23
 -21  -6   3    2.74    9.04
  -6  21  -3   20.00   17.88
 -21  -6   3   -5.57   14.16
   6 -21  -3   39.37   17.76
   6 -21   5  -29.15   23.46
 -21  -6  -5   17.46   18.53
   6 -21   5   15.75   19.25
  21   6  -5  -11.73   14.54
  21   6   5  -10.59   17.79
  21   6   5   25.27   19.10
 -21  -6  -5   47.72   16.33
 -21  -6   5   11.56   15.48
  -6  21   5   34.85   18.93
 -21  -6   5  -38.58   16.81
   6 -21  -5   -6.42   16.34
  -6  21  -5   13.39   20.40
   7 -21   0  -11.11   18.91
 -21  -7   0    7.60   12.66
   7 -21   0    2.04   12.61
  21   7   0   -3.68    4.24
 -21  -7   0    0.56   12.90
  21   7   0   12.60   14.46
  -7  21   0  -13.70   13.48
  -7  21   0    2.34   16.30
 -21  -7   0   -2.20   15.51
  -7  21   0    0.56   12.23
 -21  -7   2   22.41   13.11
   7 -21   2   12.41   19.96
 -21  -7  -2   43.70   15.90
  -7  21  -2    0.41   10.43
   7 -21   2   -3.87   17.04
 -21  -7  -2    1.23   11.84
   7 -21  -2    1.85   14.39
  21   7   2   14.46   11.19
  21   7   2   28.84   17.93
   7 -21   2   15.43   13.24
   7 -21  -2    2.45   17.65
  21   7  -2    1.57   13.60
 -21  -7  -2   -0.77   15.74
  -7  21   2  -18.09   15.58
  -7  21  -2    2.94   10.19
 -21  -7   2   16.30   10.14
 -21  -7   2  -12.46   16.27
  -7  21   2   16.74   15.79
  -7  21   2    4.27   15.64
  -7  21  -2  -11.88   17.04
  21   7   2   24.34   15.38
   7 -21  -2  -12.11   17.47
  21   7   4   28.50   17.21
   7 -21   4   42.07   23.11
 -21  -7  -4   14.48   16.46
   7 -21   4   -4.46   19.61
 -21  -7  -4  -17.45   16.20
  21   7  -4    2.80   13.87
  21   7   4    8.20   15.19
  21   7   4    5.51   18.34
  -7  21   4   -3.40   18.40
 -21  -7  -4    0.97   19.05
 -21  -7   4    4.02   15.69
   7 -21   4  -21.67   14.14
  -7  21   4   -4.73   16.39
 -21  -7   4   -6.88   13.94
  -7  21  -4   -6.61   19.42
   7 -21  -4   -9.48   16.71
   8 -21  -1   88.78   19.18
  -8  21  -1   78.05   13.16
  -8  21   1   71.71   16.01
 -21  -8   1   91.47   14.19
 -21  -8  -1   73.03   10.62
   8 -21  -1   74.75   15.17
  21   8   1   68.98   18.23
  21   8   1   81.29    9.90
   8 -21   1   94.12   15.07
 -21  -8  -1   66.29   16.15
  21   8  -1   65.86   14.83
 -21  -8   1   98.22   13.76
  -8  21   1  123.96   16.63
  -8  21   1   93.80   18.23
 -21  -8   1   99.02   17.14
  21   8   1   94.19   16.23
  -8  21  -1   92.04   14.00
  21   8   3   -5.00   16.66
   8 -21   3   19.76   21.73
   8 -21   3  -16.22   19.70
 -21  -8  -3   10.91   13.83
  -8  21  -3   21.37   11.16
 -21  -8  -3   18.25   15.81
  21   8   3    2.21   13.29
  21   8  -3   18.19   13.48
  21   8   3    7.19   17.42
  -8  21   3   10.67   17.29
  -8  21  -3    0.37    9.62
 -21  -8  -3   22.06   17.44
   8 -21   3   -0.51   14.00
 -21  -8   3   23.58   16.27
  -8  21   3   -2.33   16.17
 -21  -8   3    4.45    9.54
  -8  21   3   28.04   16.63
  -8  21  -3  -19.30   19.21
   8 -21  -3   35.46   18.65
 -21  -8   3   21.10   13.17
 -21  -8  -5    8.23   18.89
  21   8   5   18.86   17.51
  -8  21   5   -8.16   17.71
 -21  -8   5    1.57   14.61
   8 -21  -5    4.80   17.27
   9 -21   0   -5.38   19.19
 -21  -9   0    2.09   12.91
  21   9   0  -12.22   17.21
  -9  21   0    3.64   13.44
   9 -21   0    2.88   14.30
 -21  -9   0   -8.99   13.36
  21   9   0  -18.92   14.06
  -9  21   0    3.93   14.11
  -9  21   0   25.00   16.87
 -21  -9   0  -29.85   16.09
  -9  21  -2   11.50   11.61
 -21  -9   2  -14.91   13.08
 -21  -9  -2  -26.79   16.60
   9 -21   2   -3.28   18.34
  -9  21  -2    2.71   11.08
 -21  -9  -2    9.91   11.50
  -9  21   2   -2.27   15.02
   9 -21  -2   16.01   15.01
  21   9   2   14.01   10.78
  21   9   2   -5.29   18.28
  21   9  -2   -2.91   13.19
   9 -21   2  -16.14   14.29
 -21  -9  -2    4.71   16.29
  -9  21   2  -18.01   16.26
 -21  -9   2  -20.30   11.69
  -9  21   2    1.55   16.83
  -9  21  -2  -22.35   18.34
  21   9   2   26.02   15.14
   9 -21  -2  -12.48   18.53
  21   9   4   17.43   16.52
   9 -21   4   13.56   23.05
   9 -21   4   -1.88   19.54
 -21  -9  -4  -32.82   16.23
  21   9   4    6.86   15.58
 -21  -9  -4    5.75   16.38
  21   9   4   15.37   19.47
  -9  21   4   15.91   19.19
   9 -21   4    4.51   14.80
  -9  21   4  -21.93   16.91
 -21  -9   4  -17.28   15.76
 -21  -9   4   -0.53   13.49
  -9  21  -4  -43.73   21.02
   9 -21  -4    6.44   17.65
  10 -21  -1   78.84   20.49
  10 -21   1   83.92   21.91
 -21 -10  -1  115.20   18.72
  10 -21   1  114.29   19.73
 -21 -10  -1   49.13    9.82
 -21 -10   1   90.82   13.89
  10 -21  -1   84.84   16.18
  21  10   1   98.08   18.98
  21  10   1   94.45    9.41
  10 -21   1  104.89   16.15
 -10  21   1   85.92   16.58
 -21 -10  -1   74.23   16.36
  21  10  -1   98.83   14.70
 -21 -10   1   99.48   15.10
 -10  21  -1   88.67   14.46
 -10  21   1  105.64   17.06
 -10  21   1  120.56   19.40
 -10  21  -1   89.60   18.80
  21  10   1   89.89   15.84
 -10  21  -1   97.86   15.13
 -21 -10   1  107.76   17.11
 -21 -10   3    2.35   12.32
  21  10   3  -45.02   16.55
  10 -21   3  -24.03   23.39
 -10  21  -3   14.04   10.27
 -10  21   3   17.74   17.77
  10 -21   3  -30.65   19.95
 -10  21  -3  -15.50   12.11
 -21 -10  -3   -5.95   13.69
  10 -21  -3    2.26   16.63
 -21 -10  -3   23.68   17.47
  21  10  -3   -4.74   12.51
  21  10   3   10.75   13.32
  21  10   3   -3.74   18.82
  10 -21  -3   23.58   19.57
 -10  21   3   10.45   17.68
 -21 -10  -3   -7.23   16.98
  10 -21   3   10.45   14.91
 -10  21   3   22.63   16.82
 -21 -10   3   -2.92   15.29
 -10  21  -3    2.89   19.06
  10 -21  -3    2.48   18.39
 -21 -10  -5   -7.31   18.70
  21  10   5   13.18   17.51
 -10  21   5    7.19   17.62
  10 -21  -5   10.42   17.37
  11 -21   0   -4.75   21.17
 -11  21   0  -16.59   14.14
 -21 -11   0   -9.93   15.75
  21  11   0    2.52   16.70
  11 -21   0   19.24   14.99
 -21 -11   0  -14.63   13.78
  21  11   0  -12.30   13.38
 -11  21   0    9.89   14.88
 -11  21   0   19.25   18.12
  11 -21  -2  -21.73   19.91
 -11  21  -2    2.20   12.86
 -21 -11   2   -0.88   11.64
  11 -21   2    3.47   18.95
 -21 -11  -2   -3.12   11.31
  11 -21  -2   38.73   15.71
  21  11   2   14.59   10.59
  21  11  -2    3.57   12.61
  11 -21  -2   15.03   19.38
  11 -21   2    2.44   15.57
 -21 -11  -2   -6.52   16.33
 -11  21   2   25.77   16.44
 -11  21   2    3.71   17.15
 -21 -11   2   13.03   12.50
 -11  21   2   26.94   17.47
 -11  21  -2    1.99   11.61
 -21 -11   2   18.48   16.37
  21  11   2    5.78   14.57
  21  11   4   -7.97   16.99
 -21 -11  -4    4.73   16.16
  21  11   4    2.72   15.41
 -11  21   4   18.46   20.82
  11 -21   4   26.76   15.86
 -11  21   4    2.34   16.97
 -21 -11   4   -1.45   15.13
  11 -21  -4   -9.05   18.21
  12 -21  -1   44.01   21.72
 -21 -12   1   31.64   16.11
  12 -21   1   57.69   20.92
 -12  21   1   18.40   16.83
 -21 -12  -1   80.26   17.31
  12 -21  -1   48.08   16.84
  21  12   1   91.15   18.97
  12 -21   1   38.79   16.12
 -12  21  -1   23.26   14.12
  21  12  -1   30.76   12.74
 -21 -12  -1   44.61   15.97
 -21 -12   1   80.96   14.89
 -12  21   1   52.87   16.58
 -12  21   1   35.41   17.73
  21  12   1   58.70   15.23
 -12  21  -1   64.35   19.11
 -12  21  -1   60.93   14.97
  12 -21  -3   -6.89   19.19
  21  12   3   12.91   15.54
  12 -21   3   32.06   23.33
 -12  21  -3  -27.30   13.59
  12 -21   3   32.27   19.35
 -21 -12  -3   -0.54   13.85
  12 -21  -3    3.20   17.22
 -21 -12  -3  -10.97   16.74
  21  12   3   -7.74   13.00
  12 -21  -3  -27.15   20.07
  21  12   3   10.59   19.14
 -12  21   3   18.69   17.32
  12 -21   3  -10.46   16.06
 -21 -12  -3   15.91   19.40
 -12  21   3   14.47   18.99
 -12  21   3   18.11   16.75
 -12  21  -3    5.76   10.86
 -12  21  -3   -3.99   20.06
 -21 -12   3   -9.53   15.05
 -21 -12  -5  -38.64   19.38
  21  12   5   31.31   17.54
  13 -21   0  -14.20   21.96
 -21 -13   0    1.56   16.40
  21  13   0   20.86   17.49
  13 -21   0  -10.71   16.87
 -21 -13   0   11.52   14.87
  21  13   0    0.48   13.23
 -13  21   0  -11.29   17.91
 -13  21   0  -10.18   16.16
 -13  21   0   -2.89   15.47
  13 -21  -2   43.51   21.01
 -21 -13   2   37.34   16.42
 -13  21  -2   34.04   13.95
  13 -21   2   36.74   23.51
 -13  21   2   48.88   17.73
 -21 -13   2   28.80   11.15
  13 -21  -2   45.60   17.65
  13 -21  -2   46.86   20.10
  13 -21   2   27.87   16.71
 -21 -13  -2   -3.37   17.05
 -13  21   2   12.67   17.61
 -21 -13   2    2.87   13.44
 -13  21   2   19.47   17.49
 -13  21  -2   12.76   12.62
  21  13   2   44.82   15.58
 -21 -13   4   -2.17   14.97
  13 -21  -4    4.30   19.67
  21  13   4  -22.39   17.81
 -21 -13  -4   29.49   16.24
  13 -21   4  -24.86   18.54
 -13  21   4   25.95   16.86
 -14  21   1   19.67   17.25
  14 -21  -1   24.86   21.73
  14 -21   1   17.39   22.50
 -14  21  -1    4.70   14.53
 -21 -14   1   27.70   16.60
 -21 -14  -1   37.42   17.23
  21  14  -1   49.35   18.04
  14 -21  -1   19.92   16.78
  21  14   1  -11.91   18.21
  14 -21   1   33.03   16.82
 -21 -14  -1   30.75   16.30
 -21 -14   1   18.53   14.48
 -14  21   1   55.78   17.86
 -14  21   1   17.05   18.42
  21  14   1   28.91   14.35
 -14  21  -1   19.77   19.38
 -14  21  -1   35.14   16.00
  14 -21  -3  -12.82   20.10
  21  14   3   -5.05   15.99
 -21 -14   3  -36.25   16.32
 -14  21  -3   -1.92   14.19
  14 -21  -3   20.57   17.88
  14 -21   3   -4.36   17.32
 -14  21   3  -20.72   19.95
 -14  21   3  -12.04   17.27
  15 -21   0   39.65   22.75
 -21 -15   0  -15.22   16.99
  21  15   0  -23.36   19.14
  15 -21   0    1.56   18.03
 -21 -15   0   20.53   15.83
  21  15   0   -1.82   12.44
 -15  21   0  -10.97   19.56
 -15  21   0   -1.48   16.70
 -15  21   0   10.10   16.39
 -15  21  -2    0.61   13.73
  15 -21  -2    2.94   21.89
 -15  21  -2   11.65   15.44
 -21 -15   2   -7.59   16.40
  15 -21  -2   22.55   17.94
  15 -21   2   36.71   17.60
 -21 -15  -2   -2.63   18.07
 -15  21   2   33.78   18.96
 -21 -15   2   30.90   14.74
 -15  21   2   26.72   18.37
 -15  21   2   20.81   18.44
  21  15   2   31.36   15.76
  15 -21  -4   13.50   19.90
  21  15   4    1.62   17.64
 -21 -15   4   13.66   14.73
  15 -21   4  -21.94   18.67
 -15  21   4    7.16   17.18
 -16  21  -1   -0.74   16.32
  16 -21  -1  -19.96   22.25
  16 -21   1  -19.45   23.50
 -21 -16   1    6.29   16.16
  21  16  -1   -4.40   18.48
 -21 -16  -1   16.72   16.89
  16 -21  -1  -15.82   18.18
  21  16   1   13.19   18.45
  16 -21   1    2.36   17.38
 -21 -16  -1   20.41   17.06
 -21 -16   1   19.37   16.10
 -16  21   1    4.34   17.73
 -16  21   1    2.43   17.54
 -16  21   1    3.54   18.45
  21  16   1  -10.84   13.86
 -16  21  -1    2.93   20.82
  21  16   3   -9.48   16.75
  16 -21  -3    2.89   20.32
 -16  21  -3   -4.97   15.33
 -21 -16   3   -9.66   15.56
  16 -21   3   30.43   18.29
 -16  21   3   17.97   17.24
  17 -21   0   41.74   23.37
 -21 -17   0  -10.64   17.14
  21  17   0  -40.80   19.00
  17 -21   0   -5.91   18.78
 -21 -17   0    7.95   16.95
 -17  21   0   17.10   20.30
 -17  21   0  -24.05   17.97
  21  17   2   29.50   15.70
  17 -21  -2   13.42   22.04
 -17  21  -2   20.41   16.52
 -21 -17   2   25.47   16.29
  17 -21   2   -4.93   18.60
 -21 -17   2   -0.69   15.63
 -17  21   2    6.02   17.76
  17 -21   4    6.90   19.63
 -18  21  -1  -17.81   18.04
  18 -21  -1    4.44   22.87
  21  18  -1  -31.02   19.12
 -21 -18   1   -4.00   15.84
  18 -21   1    1.71   19.42
 -21 -18  -1   22.72   17.91
 -21 -18   1   -3.91   17.26
 -18  21   1   -7.81   18.75
 -18  21   1    5.50   19.08
  18 -21  -3  -23.09   21.09
 -18  21  -3   -6.27   16.48
 -21 -18   3    2.24   15.77
  18 -21   3  -15.75   20.80
 -18  21   3    9.16   17.65
 -21 -19   0   -3.41   18.23
  19 -21  -2   30.31   23.09
  21  19  -2   -7.14   18.97
 -21 -19   2   38.21   17.21
 -19  21   2   27.44   18.93
 -21 -20   1   -0.85   18.19
  22 -20  -2   -1.08   21.73
 -20 -22   2   31.54   16.34
 -22  20   2   -8.02   19.68
  22 -19  -1   -5.51   21.91
 -19 -22   1   -9.33   16.17
 -19 -22   1    7.94   18.46
 -22  19   1   -4.72   19.89
  22 -18   0  -35.05   22.91
 -18 -22   0  -19.12   18.81
 -22  18   0   -9.75   21.41
  22 -18  -2   21.57   20.24
  18  22  -2    8.49   18.37
 -18 -22   2   16.27   14.98
 -22  18   2    7.40   18.14
 -18 -22   2    8.12   17.73
  22 -17  -1   -1.02   21.26
  17  22  -1    9.40   17.93
 -17 -22   1   32.33   18.04
 -17 -22   1   27.32   15.39
 -22  17   1   -9.63   19.18
 -22  17  -3   39.34   16.95
  22 -16   0   -3.44   18.86
  22 -16   0  -22.16   22.42
  16  22   0   18.50   17.96
 -16 -22   0  -17.64   18.42
 -22  16   0    2.77   20.71
 -16 -22   0  -13.35   15.85
  22 -16  -2   22.25   18.55
 -22  16  -2   36.51   17.87
  16  22  -2   29.78   17.03
  22 -16  -2   15.03   19.94
  16  22  -2   13.14   16.44
 -16 -22   2   16.77   17.54
 -22  16   2   23.71   17.64
 -16 -22   2   25.97   15.01
 -22  15  -1   -9.55   18.33
 -15 -22  -1   35.55   16.03
  22 -15   1    9.58   18.99
  22 -15  -1    8.43   19.74
  22 -15   1    5.51   21.93
  15  22  -1   43.36   17.35
  22 -15   1    9.99   19.73
  15  22  -1   25.56   16.54
 -15 -22  -1   29.29   18.61
 -15 -22   1   31.25   17.74
 -22  15   1   12.33   18.49
 -15 -22   1  -20.80   14.42
 -22  15  -1   -1.95   21.09
 -22  15  -3   -4.00   15.64
  22 -15  -3   32.73   18.65
  15  22  -3  -28.13   16.39
 -15 -22   3   -6.08   17.75
 -14 -22   0  -11.92   14.35
  22 -14   0  -19.05   18.26
  22 -14   0   13.81   20.56
  22 -14   0   -4.44   19.25
  14  22   0   -7.75   16.69
 -14 -22   0   -9.39   17.93
 -22  14   0    4.45   20.03
 -22  14   0    5.98   17.73
 -22  14  -2   -8.32   22.49
 -14 -22   2  -11.45   13.61
 -22  14  -2    6.00   17.99
  22 -14  -2   10.49   17.12
  22 -14   2   16.99   19.01
 -14 -22  -2   38.37   16.62
 -22  14  -2   -8.32   17.04
 -14 -22  -2    1.13   13.98
  22 -14  -2  -14.47   17.97
  14  22  -2   12.24   15.91
  14  22  -2   21.45   17.12
  22 -14   2    0.91   20.12
 -14 -22   2   10.89   16.89
 -22  14   2   47.64   16.93
 -14 -22  -4   13.86   17.71
  22 -14  -4    7.51   18.00
 -22  13  -1   10.35   20.57
 -22  13  -1  -12.55   17.70
 -13 -22   1   23.44   13.71
  22 -13  -1   12.49   16.94
  22 -13   1   34.77   18.04
  22 -13  -1  -10.38   18.52
 -13 -22  -1   14.85   15.87
 -13 -22  -1    4.98   13.38
  22 -13  -1    7.94   19.12
  13  22   1   29.78   18.54
  13  22  -1   -1.61   16.52
  22 -13   1   57.24   19.98
  13  22  -1   21.75   16.44
 -13 -22  -1   28.33   17.47
 -13 -22   1   10.39   17.04
 -22  13   1   24.04   18.38
  13  22   1   26.94   17.47
 -22  13   1   -1.55   17.74
 -13 -22   3   17.52   12.49
  22 -13   3   28.79   19.48
 -13 -22  -3    4.07   15.78
 -22  13  -3   11.83   16.43
  22 -13  -3   -3.82   17.10
  13  22  -3   16.82   15.67
 -13 -22   3   19.87   17.37
 -22  12   0   33.95   19.76
  22 -12   0    5.84   16.98
 -12 -22   0   14.12   14.32
  22 -12   0    3.72   19.96
 -12 -22   0   36.96   12.61
  22 -12   0   18.85   19.12
  12  22   0    7.55   17.57
 -12 -22   0   21.52   17.83
  12  22   0   11.09   15.88
 -22  12   0   10.68   16.94
  12  22   2   14.55   16.94
 -22  12  -2   -1.02   22.04
 -22  12  -2   -0.83   17.94
 -12 -22   2   -1.70   12.83
  22 -12   2  -21.78   18.35
  22 -12  -2    8.07   16.25
  12  22   2    6.25   12.78
  12  22   2    0.98   12.01
 -12 -22  -2   -4.20   14.39
 -22  12  -2  -13.13   17.41
 -12 -22  -2   21.42   15.65
  22 -12  -2   -8.70   16.50
  12  22   2    9.46   18.53
  12  22  -2   23.88   14.96
  12  22  -2    2.30   16.56
  22 -12   2    2.66   19.29
 -12 -22  -2  -23.95   18.93
 -12 -22   2  -12.40   16.99
 -22  12   2    5.26   15.62
 -12 -22  -4   -3.95   18.30
  22 -12  -4    0.78   17.19
 -22  12  -4   -7.37   15.15
  11  22   1  -14.02   16.78
 -22  11  -1   16.43   20.37
 -22  11  -1  -15.35   17.40
  22 -11  -1  -26.09   15.95
 -11 -22   1    2.63   11.35
  22 -11   1    0.75   16.55
 -11 -22   1  -18.76   13.24
 -22  11  -1   -2.53   17.56
 -11 -22  -1   -1.44   15.55
 -11 -22  -1    1.61   13.57
 -11 -22   1  -19.03   12.14
  11  22   1   -0.88   17.78
  11  22  -1    6.38   16.83
  22 -11   1   -9.40   18.54
 -11 -22  -1   -0.86   17.89
 -11 -22   1  -10.14   17.24
 -22  11   1  -31.05   17.39
 -22  11  -3  -21.05   23.30
 -22  11  -3   -1.69   17.18
  22 -11   3   14.04   18.84
  11  22   3   -0.61   13.86
 -11 -22   3   -0.50   11.92
 -11 -22  -3    4.23   16.11
  22 -11  -3  -15.98   16.79
 -22  11  -3    1.55   15.94
  11  22  -3   10.94   15.86
  22 -11   3    6.29   18.94
 -11 -22   3   -6.89   17.37
  11  22   5  -10.46   17.94
  22 -11  -5   -5.87   18.28
  10  22   0   23.92   15.58
 -22  10   0   17.17   18.95
  22 -10   0   44.22   16.31
 -10 -22   0    9.78   13.81
 -10 -22   0    4.83   13.26
  10  22   0   19.80   17.25
 -10 -22   0   37.13   17.22
 -22  10  -2   -3.01   21.18
  10  22   2    3.27   16.45
 -22  10  -2   16.14   16.94
 -10 -22   2    1.22   11.66
  22 -10   2   20.46   17.62
  10  22   2   23.11   11.94
 -10 -22  -2   -0.63   15.09
 -10 -22   2    8.10   12.35
 -22  10  -2   -4.03   16.88
  22 -10  -2   23.54   18.45
 -10 -22   2   -4.65   12.11
  22 -10  -2  -11.04   15.40
  10  22   2   -2.74   17.89
 -10 -22  -2   16.18   15.45
  10  22  -2   18.13   16.27
  10  22  -2  -16.05   13.99
  22 -10   2   10.31   18.48
 -10 -22  -2    3.58   17.48
 -22  10   2    3.36   17.86
 -10 -22   2   29.44   17.95
 -22  10   2    4.88   14.81
 -10 -22   4   34.05   19.15
  10  22   4   25.86   15.54
 -10 -22  -4   36.34   17.89
  22 -10  -4   -2.18   17.21
  10  22  -4  -13.49   16.32
 -22  10  -4   -9.58   15.66
 -22   9   1    2.81   17.28
 -22   9  -1   36.08   20.63
 -22   9  -1   -9.35   17.31
   9  22   1  -16.33   16.03
  22  -9  -1  -22.57   14.52
  22  -9   1   -0.70   16.23
 -22   9  -1   -9.16   16.55
   9  22   1   -0.34   10.41
  -9 -22  -1  -10.20   13.91
  -9 -22   1    5.55   12.57
  -9 -22   1    0.58   12.99
  22  -9  -1    2.47   17.38
   9  22   1  -13.68   16.87
  -9 -22  -1  -20.30   15.17
   9  22  -1   -0.78   16.73
  -9 -22  -1    8.38   17.33
  -9 -22   1   10.10   16.85
 -22   9   1   14.20   16.83
   9  22  -1    6.92   14.15
 -22   9  -3   10.96   22.44
   9  22   3   -7.84   17.58
  -9 -22   3  -12.66   12.48
 -22   9  -3  -14.04   17.04
  22  -9   3   -1.66   18.03
   9  22   3   -4.26   14.27
  -9 -22  -3   -2.91   16.23
  22  -9  -3   22.15   19.23
  22  -9  -3   27.91   15.16
   9  22  -3    2.60   13.02
 -22   9  -3  -12.26   16.32
   9  22  -3   32.42   16.39
  -9 -22   3   10.64   11.57
 -22   9   3   -6.98   19.05
  -9 -22  -3    7.41   18.13
  22  -9   3   12.21   18.48
 -22   9   3   29.08   13.06
  -9 -22   3   15.62   18.19
  -9 -22  -3  -30.53   16.12
   9  22   5   37.27   18.59
 -22   8   0  119.05   20.11
   8  22   0  115.14   16.54
  22  -8   0   92.49   16.82
   8  22   0  103.95    8.61
 -22   8   0  105.60   19.39
  -8 -22   0   95.98   15.43
   8  22   0   79.48    8.29
  22  -8   0  131.55   19.59
   8  22   0   71.44   18.49
  -8 -22   0  121.92   16.25
  -8 -22   0  102.23   17.90
 -22   8  -2   28.63   21.05
 -22   8  -2   10.17   15.99
  -8 -22   2   33.35   12.65
  22  -8   2   44.05   16.48
   8  22   2   25.93   16.33
   8  22   2   35.11   12.87
  -8 -22  -2   35.90   16.59
 -22   8  -2   28.83   16.83
  22  -8  -2   46.07   18.59
  22  -8  -2   63.02   14.81
   8  22   2   26.56   17.15
   8  22  -2   25.63   16.41
  22  -8   2   -4.16   18.80
  -8 -22   2   55.50   12.29
 -22   8   2   48.77   18.16
   8  22  -2   20.56   13.19
  -8 -22   2  -15.44   18.01
  -8 -22  -2   41.46   16.21
 -22   8   2   15.93   14.78
  -8 -22   4    2.46   18.74
  22  -8   4   -7.07   19.09
   8  22   4    5.15   15.50
  -8 -22  -4  -11.53   17.62
  22  -8  -4    2.05   15.99
   8  22  -4   -7.33   16.58
  -7 -22  -1    6.15   14.82
 -22   7   1    7.43   16.72
   7  22  -1   25.70   13.42
 -22   7  -1   -1.77   19.91
  22  -7  -1   21.36   14.17
  22  -7   1  -29.03   15.26
   7  22   1  -10.66   15.81
   7  22   1    9.82   10.19
 -22   7  -1   -5.78   17.53
  -7 -22  -1    4.13   14.19
  -7 -22   1    3.56   13.66
  22  -7  -1   31.03   17.61
   7  22   1    5.79   16.37
   7  22  -1   19.18   16.15
  -7 -22  -1   14.77   16.75
  -7 -22   1   17.95   16.88
 -22   7   1    1.51   16.46
  -7 -22   1   13.56   13.43
 -22   7  -3   21.70   22.62
  -7 -22   3   59.75   13.88
 -22   7  -3   29.02   17.17
  22  -7   3   52.36   18.02
  -7 -22  -3   46.04   16.85
   7  22   3   47.57   17.64
   7  22   3   53.12   15.29
  -7 -22   3   29.43   11.53
  -7 -22  -3   27.57   17.11
  22  -7  -3   45.05   18.52
  22  -7  -3   11.04   14.75
   7  22   3   30.45   18.96
 -22   7  -3   31.35   16.59
   7  22  -3   41.31   12.58
   7  22  -3   49.61   16.79
 -22   7   3   73.23   19.48
  -7 -22  -3   64.08   18.23
  22  -7   3   17.91   18.33
 -22   7   3   37.10   12.60
  -7 -22   3    1.60   18.52
 -22   7  -5   34.16   15.16
  -7 -22   5    7.90   20.53
   7  22   5   15.68   18.88
 -22   6   0   54.70   15.74
 -22   6   0   28.94   18.24
  -6 -22   0   47.36   14.50
  22  -6   0   47.73   14.42
   6  22   0   25.66   14.38
 -22   6   0   21.25   17.58
  -6 -22   0   22.17   13.94
   6  22   0   32.91    7.60
  22  -6   0   50.05   17.95
   6  22   0   46.97   17.40
  -6 -22   0   12.68   16.82
 -22   6  -2    1.95   20.56
  -6 -22   2   19.52   13.41
  22  -6   2   15.79   15.44
  -6 -22  -2   28.03   15.49
  -6 -22   2   34.93   12.31
   6  22   2   33.12   15.56
   6  22   2   18.43   12.65
  -6 -22  -2    6.73   15.75
  22  -6  -2   18.53   17.51
  22  -6  -2    3.59   13.21
 -22   6  -2   26.91   16.82
   6  22  -2   41.91   16.87
 -22   6   2   28.22   16.68
  -6 -22   2   27.43   18.14
   6  22  -2   12.81   12.51
 -22   6   2   -4.86   14.69
  -6 -22   4  -19.65   20.26
  -6 -22   4   10.94   14.15
  22  -6   4  -11.89   18.36
   6  22   4   -8.89   16.10
  22  -6  -4   24.28   18.20
  -6 -22  -4    9.25   18.50
  22  -6  -4   11.42   15.54
   6  22   4   12.49   19.58
 -22   6   4   14.06   19.28
   6  22  -4    8.18   15.83
  -6 -22  -4  -14.00   18.99
 -22   6  -4   13.98   14.93
 -22   5   1   67.84   18.05
 -22   5  -1   18.75   16.09
 -22   5  -1   19.96   19.61
  22  -5  -1   56.71   13.92
   5  22  -1   56.29   13.84
  22  -5   1   75.66   15.44
   5  22   1   52.19   15.25
  -5 -22  -1   48.09   15.07
   5  22   1   49.15   11.10
  -5 -22   1   43.11   14.01
 -22   5  -1   19.59   17.45
  -5 -22  -1   32.06   15.08
  22  -5  -1   33.71   17.60
   5  22   1   66.60   16.82
   5  22  -1   43.55   16.43
  22  -5   1   38.21   18.11
  -5 -22  -1   55.01   17.12
  -5 -22   1   59.82   17.98
 -22   5   1   25.20   15.97
  -5 -22   3   17.30   18.08
 -22   5  -3   32.20   22.34
  -5 -22   3  -19.82   14.15
  22  -5   3    7.36   16.43
   5  22   3    4.96   13.75
  -5 -22  -3   -9.90   17.34
  22  -5  -3   53.64   18.00
   5  22   3   38.73   17.71
  22  -5  -3    4.25   13.65
   5  22   3   -4.47   19.24
  -5 -22   3   10.49   10.52
 -22   5  -3   -9.23   16.42
   5  22  -3   18.90   16.40
 -22   5   3    6.33   17.18
  -5 -22  -3    0.79   15.63
  -5 -22  -3   -0.88   17.48
 -22   5   3  -14.22   11.61
 -22   5  -5   -1.40   14.86
  -5 -22   5  -12.79   20.46
  -5 -22   5   23.39   15.34
   5  22   5    5.26   18.50
   5  22  -5  -31.94   16.74
 -22   4   0  140.37   17.87
 -22   4   0  126.23   20.67
  22  -4   0  128.57   16.46
   4  22   0  160.75   17.11
 -22   4   0  147.49   21.01
  -4 -22   0  126.72   18.04
   4  22   0  136.22   11.86
  22  -4   0  168.45   20.22
   4  22   0  173.39   20.03
  -4 -22   0  180.09   16.87
  -4 -22   0  150.75   20.18
 -22   4   2    2.07   14.27
   4  22  -2    9.34   12.13
 -22   4  -2  -15.44   21.30
  -4 -22   2  -12.01   13.47
 -22   4  -2    6.62   16.00
  22  -4   2    5.70   14.54
 -22   4   2   13.88   18.51
  -4 -22   2   -8.01   11.86
   4  22   2    3.97   12.39
  -4 -22  -2    3.46   16.23
   4  22   2   -9.41   15.23
  22  -4  -2   12.98   16.93
  22  -4  -2    0.90   12.11
 -22   4  -2   -9.45   16.52
   4  22  -2   50.23   16.84
  22  -4   2  -10.99   16.61
  -4 -22  -2    8.36   16.78
 -22   4   2  -18.92   16.37
  -4 -22  -2  -18.80   14.84
  -4 -22   2  -11.24   17.72
  -4 -22   4   -8.83   20.34
 -22   4  -4   21.19   24.17
 -22   4  -4   -5.54   18.55
  -4 -22   4   53.44   15.72
  22  -4   4    4.87   17.77
   4  22   4    5.23   16.83
  22  -4  -4    6.61   17.54
  -4 -22  -4   17.97   18.52
  22  -4  -4  -11.92   14.65
   4  22   4   18.61   18.93
 -22   4   4   10.87   19.30
   4  22  -4   -2.28   16.34
  -4 -22  -4  -28.30   19.59
 -22   4  -4   17.81   15.31
   3  22  -1   14.88    3.90
 -22   3   1   11.06   16.57
 -22   3  -1   -2.79   14.98
 -22   3  -1   -6.85   18.96
  22  -3  -1    2.58   11.82
  -3 -22  -1   11.77   14.02
  22  -3   1    5.39   13.41
   3  22  -1   -1.10   12.72
  -3 -22  -1   23.86   15.31
   3  22   1    7.67   11.51
 -22   3  -1    1.61   16.34
  -3 -22   1   28.61   12.28
   3  22   1   20.67   14.27
  22  -3  -1   19.92   16.97
   3  22  -1  -17.60   16.16
  22  -3   1  -20.47   16.91
  -3 -22   1   29.54   17.50
 -22   3   1    4.83   15.45
  -3 -22   3   -5.08   19.20
 -22   3  -3   29.84   21.90
  -3 -22   3   13.53   15.30
  22  -3   3    6.24   15.28
   3  22   3   17.72   14.62
  -3 -22  -3  -17.96   17.65
  22  -3  -3   11.61   17.43
  22  -3  -3   28.02   13.11
   3  22   3   -2.35   16.26
   3  22   3  -28.85   18.90
  -3 -22  -3   -8.56   16.04
   3  22  -3   17.67   16.42
 -22   3   3    3.74   16.96
  -3 -22  -3   -0.86   17.78
  22  -3   3   21.89   17.60
 -22   3   3    1.04   11.04
   3  22  -3   -1.16   10.46
  -3 -22   5   -3.83   21.13
 -22   3  -5   27.19   15.40
 -22   3  -5  -26.98   20.63
  -3 -22   5    1.42   16.34
  22  -3   5    5.43   18.70
  22  -3  -5    9.35   17.32
   3  22   5   -1.78   19.52
 -22   3   5   -5.37   19.06
   3  22  -5   -9.20   16.42
 -22   2   0   36.41   14.97
 -22   2   0   38.45   17.61
  22  -2   0   34.32   12.60
 -22   2   0   62.25   17.55
  -2 -22   0   32.12   16.15
   2  22   0   30.18   13.51
   2  22   0   64.78   10.07
  22  -2   0    8.04   16.54
   2  22   0   37.80   16.62
  -2 -22   0   24.13   16.97
  -2 -22   0   47.48   13.84
 -22   2   2   26.59   14.72
  22  -2  -2    3.38   11.14
 -22   2  -2   11.41   19.67
  -2 -22   2   15.94   14.95
 -22   2  -2   -5.73   15.30
   2  22  -2   39.76   12.84
  22  -2   2   51.56   14.22
 -22   2   2   14.60   18.60
   2  22   2   23.44   13.66
  -2 -22  -2   30.76   16.22
  22  -2  -2   18.54   11.85
  22  -2  -2   34.98   17.11
 -22   2  -2    3.95   15.81
   2  22   2   34.08   16.74
   2  22   2    0.70   13.98
   2  22  -2   30.77   16.27
  22  -2   2   -2.30   16.32
  -2 -22  -2    3.30   17.61
 -22   2   2   14.51   15.34
  -2 -22  -2   12.06   15.13
  -2 -22   2    9.09   18.57
 -22   2  -4   -2.91   15.32
  -2 -22   4   39.77   20.79
 -22   2  -4   -8.41   17.36
 -22   2  -4  -10.49   24.21
  -2 -22   4   26.23   15.90
  22  -2   4   34.09   17.58
  22  -2  -4   -0.78   17.00
   2  22   4    1.52   17.27
  -2 -22  -4   16.56   18.10
   2  22   4  -18.08   18.30
 -22   2   4   32.32   18.47
   2  22  -4   15.65   16.74
  -2 -22  -4   10.69   18.81
  22  -2   4   20.65   18.21
  -2 -22   6  -26.53   18.73
 -22   1   1   -3.22   16.62
 -22   1  -1   -3.39   15.37
 -22   1  -1  -14.33   18.95
  -1 -22  -1    3.86   13.91
  22  -1  -1    8.91   10.66
  22  -1   1    7.16   12.48
 -22   1   1   35.08   17.86
  -1 -22  -1  -11.51   15.52
   1  22  -1    4.70   12.57
   1  22   1  -11.14   11.84
 -22   1  -1   -0.80   15.60
  22  -1  -1   -3.54   16.73
   1  22   1  -19.85   13.49
   1  22  -1   17.68   15.96
  22  -1   1   44.68   17.53
   1  22  -1   -3.67    6.45
  -1 -22   1  -12.26   17.18
 -22   1   1   11.88   15.06
 -22   1   3   14.02   11.07
  -1 -22   3  -16.73   20.29
   1  22  -3    4.53   10.63
 -22   1  -3   37.15   15.29
 -22   1  -3   13.68   21.36
  -1 -22   3    1.99   15.58
  22  -1   3   -2.59   14.96
 -22   1   3    0.95   19.83
  -1 -22  -3   -3.07   15.81
   1  22   3   12.34   15.58
  22  -1  -3   -0.79   11.71
  22  -1  -3   -5.87   16.65
  -1 -22  -3   31.17   18.28
   1  22   3    5.09   17.18
   1  22   3   10.67   14.45
   1  22  -3    5.50   17.15
 -22   1   3    4.97   15.87
  -1 -22  -3    6.79   17.40
 -22   1  -3  -26.55   15.61
  22  -1   3  -30.99   17.24
  -1 -22   5    2.99   21.28
 -22   1  -5   16.72   19.15
 -22   1  -5   -8.86   15.06
  -1 -22   5   -5.37   18.06
 -22   1   5   -3.03   20.36
  22  -1  -5   11.27   17.33
  22  -1   5   -4.37   18.75
   1  22   5   20.61   19.46
   1  22   5   -8.44   18.70
 -22   1   5    5.91   18.53
   1  22  -5  -11.19   17.43
  -1 -22  -5    8.25   18.51
 -22   0   0   48.19   15.01
 -22   0   0   14.82   17.22
  22   0   0   28.65   11.19
  22   0   0   25.38   16.18
   0  22   0   50.49   10.95
   0  22   0   32.25   15.50
   0  22   0   42.16   13.19
   0 -22   0    7.33   17.09
   0 -22   2   28.19   19.33
 -22   0   2   42.95   14.92
   0 -22   2   31.84   15.45
  22   0  -2   31.30    9.94
 -22   0  -2    0.94   20.20
 -22   0  -2   10.52   15.04
  22   0   2   15.42   13.09
 -22   0   2   41.17   18.67
   0  22  -2   41.34   12.43
  22   0  -2   19.10   10.49
   0 -22  -2    0.74   16.90
   0  22   2    7.05   13.63
  22   0  -2   32.52   16.36
   0  22   2   -0.80   16.56
 -22   0  -2   30.37   16.36
   0  22  -2   14.08   15.91
  22   0   2   30.55   16.45
   0 -22  -2   26.33   17.70
   0  22   2   23.02   14.74
 -22   0   2   19.16   15.33
 -22   0  -4   13.40   15.46
   0 -22   4   19.34   21.08
 -22   0  -4   48.97   18.45
 -22   0  -4    1.15   23.87
   0 -22   4   19.36   17.36
  22   0   4   29.56   16.63
 -22   0   4   -6.88   20.25
  22   0  -4   40.74   16.73
   0  22   4    9.36   17.05
   0 -22  -4   51.68   19.48
   0  22   4   27.47   18.42
 -22   0   4    1.49   17.32
   0  22  -4  -13.78   17.60
   0 -22  -4   29.63   18.27
  22   0   4   37.20   17.87
   0 -22   6   44.51   22.65
   0 -22   6   -1.72   18.76
 -22   0   6   10.92   18.59
 -22   0  -6   -0.75   15.40
   0  22  -6    4.10   17.61
 -22  -1   1    5.70   14.53
 -22  -1  -1   12.48   14.32
 -22  -1  -1    7.54   18.52
  22   1  -1    5.04    9.21
  22   1   1   16.76   11.32
 -22  -1   1  -14.02   16.24
 -22  -1   1    7.52   16.83
   1 -22  -1   -5.70   16.36
  -1  22   1    0.45   12.77
  22   1  -1   31.03   16.07
 -22  -1  -1   16.86   16.96
  -1  22   1   12.47   15.95
  -1  22  -1   11.47   11.68
  -1  22  -1   41.21   16.72
  22   1   1   32.70   16.60
   1 -22  -1   -6.55   17.40
  -1  22  -1   12.59    8.21
   1 -22   1   31.89   17.65
  -1  22   1   51.17   13.75
 -22  -1   3   -9.41   10.79
   1 -22   3    7.37   20.14
 -22  -1  -3   -0.60   14.78
   1 -22   3  -22.03   16.62
 -22  -1  -3  -52.20   22.12
  -1  22  -3    4.92   10.42
  22   1   3   14.06   13.83
 -22  -1   3   -6.52   19.69
  22   1  -3    9.69   16.37
  -1  22   3   -5.41   16.26
   1 -22  -3   16.37   17.81
 -22  -1   3   -2.56    8.40
  -1  22   3  -18.16   17.82
  -1  22  -3    0.81   17.28
 -22  -1   3  -22.21   15.98
   1 -22  -3   -1.68   18.26
  22   1   3  -14.75   17.00
 -22  -1  -3   -8.26   15.57
  -1  22   3   31.51   16.32
   1 -22   5    5.21   21.65
 -22  -1  -5  -24.33   19.18
   1 -22   5   -8.23   18.13
 -22  -1  -5  -12.17   15.45
  22   1  -5   22.79   17.09
  22   1   5   22.10   18.31
 -22  -1   5    8.88   19.57
  -1  22   5   24.76   19.94
  -1  22   5   10.96   18.95
 -22  -1   5    4.79   18.10
   1 -22  -5   -7.13   18.31
  -1  22  -5  -10.96   17.91
  -2  22   0  150.84   15.69
 -22  -2   0  140.22   17.58
 -22  -2   0  169.57   20.23
  22   2   0  136.08   12.55
  22   2   0  140.37   18.71
  -2  22   0  153.57   14.55
   2 -22   2  -21.32   18.87
  -2  22   2   10.09   14.43
 -22  -2   2    9.27   14.29
 -22  -2  -2  -17.42   12.55
  -2  22  -2    2.18    7.64
   2 -22   2  -12.31   15.83
  22   2  -2    5.07    7.43
 -22  -2  -2   -7.50   18.83
 -22  -2  -2   13.79   14.95
  22   2   2   -0.49   12.12
   2 -22   2   24.24    9.14
  22   2  -2    5.92    7.55
 -22  -2   2   25.20   18.90
   2 -22  -2   26.94   17.44
  22   2  -2    4.57   15.55
  -2  22   2  -24.91   14.46
  -2  22   2   -8.72   17.19
  -2  22  -2   20.61   11.55
  -2  22  -2   22.47   17.32
 -22  -2  -2  -10.61   15.45
  22   2   2  -18.84   16.22
   2 -22  -2  -10.71   18.05
 -22  -2   2    0.63   14.36
  22   2   4   27.58   18.04
   2 -22   4  -27.11   23.09
 -22  -2  -4   30.59   16.45
 -22  -2  -4   31.99   17.46
 -22  -2  -4   -5.74   23.01
   2 -22   4  -20.66   17.90
  22   2   4   18.56   16.21
  22   2  -4    7.67   15.68
 -22  -2   4   39.10   20.13
   2 -22  -4    7.29   18.94
  -2  22   4   39.00   18.38
  -2  22   4    5.21   18.28
 -22  -2   4   34.36   16.58
  -2  22  -4   19.53   18.55
   2 -22  -4   17.18   18.58
   2 -22   6  -18.85   23.51
  22   2   6   15.31   18.98
 -22  -2   6   27.68   18.48
 -22  -2  -6  -19.54   16.11
 -22  -2   6  -17.11   19.52
   3 -22   1    3.47   19.22
 -22  -3   1   12.19   15.06
  -3  22  -1  -12.51   11.52
 -22  -3   1    5.10   15.83
  -3  22   1   18.10   13.18
 -22  -3  -1    1.28   14.47
 -22  -3  -1    4.19   18.36
  22   3  -1   -0.20    6.43
  22   3   1  -12.97   10.58
   3 -22   1    8.51   10.44
  22   3  -1   15.05    7.34
   3 -22  -1   11.20   17.27
 -22  -3   1  -17.22   17.26
  22   3  -1    5.12   15.88
  -3  22   1    1.96   13.70
 -22  -3  -1   19.48   17.04
  -3  22   1    2.34   15.97
  -3  22  -1   10.32   16.53
  22   3   1   10.97   16.28
  -3  22  -1   -9.86    9.35
   3 -22  -1   12.41   16.92
 -22  -3  -3   20.10   15.92
   3 -22   3   -2.90   21.49
 -22  -3   3   -1.38   10.75
  -3  22   3  -17.40   16.04
 -22  -3  -3    5.80   14.50
   3 -22   3  -18.21   17.39
 -22  -3  -3  -18.78   22.38
  22   3   3    9.90   14.01
  22   3  -3  -12.35   15.36
   3 -22  -3    1.69   18.02
   3 -22   3    2.21   10.71
 -22  -3   3   -8.96   18.40
  -3  22   3    4.20   16.11
  -3  22  -3   10.00   10.87
  -3  22   3   19.55   16.99
  -3  22  -3  -10.95   17.90
 -22  -3   3    8.91   15.54
   3 -22  -3   -3.35   17.18
  22   3   3   -2.29   16.56
   3 -22   5  -27.24   22.99
 -22  -3  -5   -4.27   18.81
   3 -22   5   39.39   18.61
  22   3  -5    0.71   15.75
  22   3   5  -23.32   18.65
 -22  -3  -5   -0.78   15.75
  22   3   5    6.66   17.57
 -22  -3   5   -4.71   19.21
  -3  22   5    6.57   19.98
  -3  22   5   17.83   18.38
 -22  -3   5   35.84   18.12
  -3  22  -5   20.77   19.06
   3 -22  -5   -0.87   17.93
 -22  -4   0   98.77   15.31
  -4  22   0   89.49   14.29
  22   4   0   96.42   10.07
   4 -22   0  115.36   13.68
 -22  -4   0  136.90   19.74
  22   4   0  110.04   17.68
  -4  22   0  106.87   13.66
   4 -22   0   97.34   21.27
  -4  22  -2    9.10   10.67
   4 -22   2   23.25   20.79
  -4  22  -2   10.58    8.90
 -22  -4  -2   11.53   12.54
   4 -22   2   12.43   16.47
 -22  -4   2    9.96   14.04
  -4  22   2    6.17   13.84
  22   4   2   -1.84   11.82
   4 -22   2   -0.73   10.77
   4 -22  -2  -12.02   17.49
  22   4  -2    8.58   14.79
  -4  22   2    4.81   14.95
 -22  -4   2  -15.09   17.78
 -22  -4   2   14.37    9.66
  -4  22   2   32.60   16.43
  -4  22  -2  -17.38   17.03
  22   4   2    9.94   16.25
   4 -22  -2   11.56   17.34
 -22  -4  -2    8.53   16.32
 -22  -4   2   -8.97   14.15
  22   4   4   -2.48   17.33
   4 -22   4  -44.13   22.62
 -22  -4  -4   12.10   16.95
 -22  -4  -4    6.30   16.13
   4 -22   4   51.51   18.89
  22   4   4  -19.56   18.55
  22   4   4   19.55   15.86
  22   4  -4   22.91   15.03
   4 -22  -4   14.90   20.06
  -4  22   4    4.17   18.64
 -22  -4   4   42.45   18.60
  -4  22   4   11.02   17.68
 -22  -4   4  -17.87   16.63
  -4  22  -4   20.76   19.04
   4 -22  -4   -8.47   18.45
   4 -22  -6   30.83   19.04
 -22  -5   1   89.78   15.48
 -22  -5  -1  111.62   15.71
   5 -22  -1  100.07   14.42
  -5  22  -1  115.50   12.95
  22   5   1   66.96   11.00
   5 -22   1   65.02   13.21
  -5  22   1   75.97   14.73
   5 -22  -1   68.70   18.20
 -22  -5   1   67.51   13.16
  22   5  -1   70.07   16.15
  -5  22   1   90.13   15.10
 -22  -5   1   85.43   17.57
  -5  22   1   86.11   18.52
  -5  22  -1   93.76   18.45
  22   5   1   71.81   16.86
 -22  -5  -1   67.70   16.53
  -5  22  -1   64.23   11.73
   5 -22  -1  103.88   19.73
   5 -22   3   14.17   20.64
 -22  -5  -3   14.30   16.31
 -22  -5  -3    5.65   14.26
   5 -22   3   16.16   18.02
  22   5   3    4.39   17.70
  22   5   3   17.11   13.80
  -5  22   3   17.88   15.87
  22   5  -3   33.44   14.84
   5 -22  -3  -20.88   18.48
   5 -22   3    4.79   12.50
  -5  22   3   27.52   17.45
 -22  -5   3   -7.71   17.92
  -5  22   3  -62.92   18.15
  -5  22  -3   37.71   19.08
  -5  22  -3   11.55   10.58
 -22  -5   3    8.45   14.67
   5 -22  -3   31.60   18.55
  22   5   3    0.75   16.40
   5 -22   5   -1.13   23.13
 -22  -5  -5    7.59   19.11
  22   5  -5   12.63   15.50
  22   5   5   39.56   17.35
  22   5   5   17.07   19.13
 -22  -5  -5  -52.62   17.54
 -22  -5   5   -6.23   17.59
  -5  22   5   16.61   18.12
 -22  -5   5   18.24   16.66
  -5  22  -5   -5.81   20.41
   5 -22  -5   12.82   18.03
   6 -22   0   78.54   20.16
 -22  -6   0   76.00   14.76
   6 -22   0   41.48   13.24
  22   6   0   50.58    6.77
 -22  -6   0   56.57   14.32
  -6  22   0   69.53   13.80
  22   6   0  105.11   16.52
  -6  22   0  107.41   14.28
  -6  22   0   46.88   17.50
 -22  -6   2   -6.82   14.39
 -22  -6  -2   16.64   16.53
   6 -22   2   21.50   21.57
  -6  22  -2  -13.26   10.42
 -22  -6  -2    7.96   11.58
   6 -22   2   17.13   18.13
 -22  -6   2  -19.55   14.54
  -6  22  -2    4.80   10.85
  22   6   2   25.13   17.81
  22   6   2    7.96   11.62
   6 -22   2  -16.49   13.02
   6 -22  -2    0.83   18.48
  22   6  -2   -9.73   14.14
  -6  22   2  -30.03   15.44
  -6  22   2    6.40   16.38
 -22  -6   2   -6.59   16.93
 -22  -6   2   19.05   10.44
  -6  22   2   -4.78   16.88
  -6  22  -2   22.33   18.50
  22   6   2    0.70   16.01
   6 -22  -2  -15.01   17.90
  22   6   4    8.23   17.53
   6 -22   4   26.37   22.91
 -22  -6  -4  -18.18   16.72
   6 -22   4   13.41   19.22
 -22  -6  -4    4.89   16.39
  22   6  -4    7.28   14.86
  22   6   4    3.46   15.29
  22   6   4   -3.74   18.85
  -6  22   4  -31.58   19.22
 -22  -6   4   -7.77   17.25
  -6  22   4  -31.59   17.91
 -22  -6   4   -5.59   14.96
  -6  22  -4  -27.42   20.25
   6 -22  -4  -23.42   18.81
 -22  -7   1   25.43   13.71
   7 -22  -1   30.99   13.83
  22   7   1   30.50    9.21
   7 -22   1   19.87   13.53
 -22  -7  -1   34.02   14.62
 -22  -7   1   22.60   12.60
  22   7  -1   57.24   14.33
  -7  22   1   23.91   14.41
  -7  22  -1    7.55   11.35
  -7  22   1   37.03   16.26
  -7  22   1   34.72   14.47
  22   7   1   36.67   15.39
  -7  22  -1   42.25   12.33
   7 -22  -1   29.51   18.08
  22   7   3   14.92   16.48
   7 -22   3    9.55   22.45
 -22  -7  -3  -11.43   16.61
   7 -22   3  -37.71   19.85
 -22  -7  -3   23.73   14.12
  -7  22  -3   -7.39   10.42
  -7  22  -3   -3.66   10.14
  22   7   3  -19.69   13.88
  22   7   3  -25.74   18.00
  22   7  -3   -4.54   14.33
   7 -22  -3   54.79   20.43
   7 -22   3   16.20   13.58
  -7  22   3   -3.04   17.67
 -22  -7  -3   32.60   18.79
  -7  22   3   12.10   16.44
 -22  -7   3   19.22   17.86
  -7  22   3   34.79   17.03
  -7  22  -3   -6.48   19.21
   7 -22  -3   40.07   18.07
 -22  -7   3   -9.06   14.27
 -22  -7  -5   11.66   18.73
  22   7   5   27.31   17.71
 -22  -7   5   -5.93   16.80
  -7  22   5  -21.59   18.19
   7 -22  -5  -18.44   18.04
   8 -22   0   69.08   19.94
  -8  22   0   66.53   14.44
 -22  -8   0   59.20   14.89
   8 -22   0   85.61   15.17
 -22  -8   0   57.33   14.24
  22   8   0   58.30   15.52
  -8  22   0   75.90   14.73
  -8  22   0   89.83   18.39
 -22  -8   0   33.42   16.99
 -22  -8   2   -1.07   13.01
   8 -22   2   14.26   20.21
  -8  22  -2    7.15   11.28
 -22  -8  -2   -8.09   16.94
   8 -22   2    2.48   18.03
 -22  -8  -2    5.20   11.36
   8 -22  -2   10.51   14.87
  22   8   2    6.31   17.64
  22   8   2   10.44   11.20
   8 -22   2   11.42   13.87
   8 -22  -2   21.68   19.18
  22   8  -2   11.18   13.92
 -22  -8  -2   17.60   16.60
  -8  22   2   10.96   16.47
 -22  -8   2   40.27   11.26
  -8  22  -2   13.09   10.77
 -22  -8   2  -31.20   17.12
  -8  22   2    6.43   16.95
  -8  22  -2   -4.51   18.24
  -8  22   2   33.26   15.87
  22   8   2  -19.14   15.82
   8 -22  -2   18.98   18.89
  22   8   4  -17.24   17.70
   8 -22   4  -15.99   23.56
 -22  -8  -4   15.18   16.95
   8 -22   4   37.77   20.02
 -22  -8  -4   -5.88   16.93
  22   8   4    0.69   15.71
  22   8   4   21.44   19.50
  -8  22   4  -23.02   19.86
 -22  -8   4   23.43   16.88
  -8  22   4   -0.82   17.46
  -8  22  -4   22.01   21.39
 -22  -8   4   28.29   15.20
   8 -22  -4   15.02   18.20
   9 -22  -1   -8.12   20.25
   9 -22   1   45.84   21.47
   9 -22   1    9.71   18.05
  -9  22  -1   28.20   12.93
  -9  22   1   11.25   15.16
 -22  -9   1   20.90   13.09
   9 -22  -1   18.21   14.83
  22   9   1   20.28   18.31
   9 -22   1   28.56   15.26
 -22  -9  -1   35.78   15.27
  22   9  -1   21.71   14.51
 -22  -9   1   17.63   12.58
  -9  22   1   18.99   15.10
  -9  22   1   32.98   16.85
  22   9   1   50.66   15.55
 -22  -9   1   15.42   15.60
  -9  22  -1   29.38   12.96
  22   9   3   -0.74   16.59
 -22  -9   3  -14.11   13.49
   9 -22   3   -8.83   23.08
   9 -22   3   -8.16   20.04
 -22  -9  -3  -12.46   14.37
  -9  22  -3  -21.13   11.44
 -22  -9  -3  -26.06   17.40
  22   9   3   -1.10   13.26
  22   9  -3   17.87   13.66
  22   9   3    1.90   18.89
   9 -22   3    8.25   14.77
  -9  22   3   38.40   19.05
 -22  -9  -3   -2.76   17.91
  -9  22   3    7.35   17.44
  -9  22  -3  -15.58   20.29
  -9  22   3   -5.93   16.94
   9 -22  -3  -11.07   18.70
 -22  -9  -5  -15.69   18.90
  22   9   5  -19.04   17.67
  -9  22   5  -10.98   18.17
 -22  -9   5   28.59   15.88
   9 -22  -5  -12.48   17.69
 -22 -10   0    2.37   16.14
  10 -22   0    2.91   20.77
  22  10   0   47.49   18.83
  10 -22   0   42.35   15.87
 -10  22   0   42.96   14.80
 -22 -10   0   10.73   14.10
  22  10   0   43.06   14.84
 -10  22   0   34.36   17.77
 -10  22   0   21.68   14.91
  10 -22  -2   14.29   19.83
 -10  22  -2    3.10   12.24
 -22 -10   2   22.09   12.65
  10 -22   2  -38.49   20.76
 -22 -10  -2   -2.33   11.55
 -22 -10  -2  -38.19   17.39
 -10  22   2   12.08   17.01
 -10  22  -2   13.17   11.16
  10 -22  -2  -20.58   16.10
  22  10  -2  -15.78   13.07
  10 -22   2   14.05   14.81
 -22 -10  -2   -6.56   16.92
 -10  22   2   13.21   17.25
 -22 -10   2   12.33   11.88
 -10  22   2  -14.79   16.94
 -10  22  -2  -13.08   18.98
 -22 -10   2    6.17   15.90
  22  10   2    7.44   16.20
  22  10   4   -4.92   16.98
 -22 -10  -4   -5.47   16.35
  22  10   4   37.03   15.86
 -10  22   4   23.14   20.46
 -10  22   4   27.09   17.52
  10 -22  -4  -20.34   18.12
 -22 -11   1   -1.57   16.22
  11 -22  -1  -22.72   21.05
  11 -22   1   10.49   22.02
  11 -22   1  -48.95   20.49
 -22 -11  -1   -6.56   16.75
 -22 -11   1   19.56   12.01
  11 -22  -1    4.83   15.65
  22  11   1   36.46   18.03
  11 -22   1    4.47   15.13
 -11  22   1   -9.10   15.79
  22  11  -1  -10.83   13.16
 -22 -11  -1   23.55   15.72
 -22 -11   1   16.02   13.99
 -11  22  -1   19.70   13.63
 -11  22   1  -15.03   16.40
 -11  22   1   -5.10   17.62
  22  11   1    0.61   15.16
 -11  22  -1   -9.16   18.80
 -11  22  -1  -11.75   13.59
  11 -22  -3   10.64   20.08
  22  11   3   -7.43   16.92
  11 -22   3    0.96   19.91
 -11  22  -3    8.59   12.52
 -22 -11  -3  -27.37   14.12
  11 -22  -3   -5.57   17.45
 -22 -11  -3   17.27   16.53
  11 -22   3    3.75   16.13
 -22 -11  -3   -3.77   19.27
 -11  22   3    0.85   18.72
 -11  22   3  -20.57   16.94
 -22 -11   3    9.26   15.65
 -22 -11  -5   30.13   19.11
 -12  22   0   -6.40   15.33
  12 -22   0    3.07   22.10
 -22 -12   0   35.43   15.87
  22  12   0  -30.27   18.58
  12 -22   0    4.14   15.76
 -22 -12   0  -22.79   15.49
  22  12   0    1.59   13.62
 -12  22   0  -14.25   19.43
 -12  22   0  -10.59   15.11
 -22 -12   2   31.94   17.02
  12 -22  -2    4.68   21.03
 -12  22  -2   -1.18   13.70
  12 -22   2   45.14   20.35
 -22 -12   2    4.88   11.98
  12 -22  -2   14.49   16.72
  12 -22  -2    3.74   19.93
  12 -22   2    3.27   16.08
 -12  22   2   14.54   17.54
 -22 -12  -2   12.78   17.45
 -12  22   2   -3.13   18.04
 -22 -12   2    7.34   13.12
 -12  22   2   -7.56   17.71
 -12  22  -2    2.15   12.22
  22  12   2    2.02   15.68
  12 -22  -4   -3.52   18.88
  22  12   4   17.35   17.50
 -12  22   4   18.97   18.07
 -22 -12   4   10.70   15.85
  13 -22  -1   21.24   21.92
  13 -22   1    2.21   22.47
 -22 -13   1   39.91   16.80
 -13  22   1    4.90   16.81
 -22 -13  -1  -12.60   17.32
  13 -22  -1   36.64   17.61
 -13  22  -1    2.62   14.98
  22  13   1   51.77   18.76
  13 -22   1   28.26   16.88
  22  13  -1   30.96   13.49
 -22 -13  -1   10.00   16.32
 -22 -13   1   15.54   14.55
 -13  22   1   17.02   16.67
 -13  22   1   31.55   19.18
  22  13   1   -3.56   14.41
 -13  22  -1   -0.95   20.14
 -13  22  -1   42.49   15.15
  13 -22  -3  -18.53   20.40
 -22 -13   3    1.55   16.44
  22  13   3  -20.17   16.99
 -13  22  -3   12.13   13.78
  13 -22  -3  -27.04   18.30
  13 -22   3   -2.79   17.29
 -13  22   3   22.35   19.94
 -13  22   3   -9.98   17.61
  14 -22   0   35.69   22.10
 -22 -14   0    4.94   16.46
  22  14   0    2.76   17.92
  14 -22   0    2.26   16.80
 -22 -14   0  -13.65   15.63
  22  14   0   22.99   13.25
 -14  22   0  -12.31   16.13
 -14  22   0   36.91   19.51
 -14  22   0   -3.60   16.24
  14 -22  -2  -47.47   22.67
 -14  22  -2    5.26   14.91
 -14  22   2   32.67   18.10
 -22 -14   2   14.25   16.37
  14 -22  -2  -20.50   18.21
  14 -22   2  -15.25   17.37
 -22 -14  -2   -9.70   18.06
 -14  22   2  -15.00   19.21
 -14  22  -2   -2.38   13.21
 -22 -14   2   -3.10   14.01
 -14  22   2   -8.61   18.60
  22  14   2   18.76   15.56
  14 -22  -4   12.82   19.65
 -22 -14   4   18.99   15.44
  14 -22   4  -32.47   18.01
 -14  22   4    7.44   17.81
 -15  22  -1   -2.88   16.11
  15 -22  -1   16.02   22.63
  15 -22   1   23.23   23.13
 -22 -15   1  -20.26   17.20
  22  15  -1  -14.40   18.38
 -22 -15  -1   -6.87   16.83
  15 -22  -1   -1.63   17.38
  15 -22   1   23.27   18.09
 -22 -15  -1   -6.46   16.55
 -22 -15   1    3.53   15.90
 -15  22  -1   -7.15   15.32
 -15  22   1   10.32   17.71
 -15  22   1  -22.64   19.12
 -15  22   1   -6.95   17.36
  22  15   1   -9.24   14.73
  22  15   3  -19.59   17.08
  15 -22  -3  -12.69   20.87
 -22 -15   3   30.38   16.77
 -15  22  -3   12.88   14.95
  15 -22   3    3.85   17.91
 -15  22   3   -6.78   17.52
  16 -22   0    6.83   23.88
 -16  22   0   11.53   17.16
 -22 -16   0  -28.57   17.70
  22  16   0  -13.29   18.54
  16 -22   0   -5.81   18.48
 -22 -16   0   13.96   16.64
 -16  22   0  -11.63   20.25
 -16  22   0   29.00   17.51
  16 -22  -2   22.12   22.72
 -16  22  -2    8.75   16.00
 -22 -16   2    8.00   16.20
 -16  22  -2   -1.96   14.44
  16 -22   2    3.20   18.92
 -16  22   2   -1.77   17.99
  22  16   2   -5.36   15.97
  16 -22   4   21.59   19.72
 -17  22  -1  -14.17   17.56
  17 -22  -1    7.87   23.43
 -22 -17   1  -24.75   17.37
  22  17  -1  -19.52   18.53
  17 -22  -1   27.21   18.77
  17 -22   1   -7.53   18.70
 -22 -17  -1   28.43   17.92
 -22 -17   1   42.77   17.35
 -17  22   1    5.97   18.59
 -17  22   1  -22.52   19.52
  22  17   3   16.00   17.26
  17 -22  -3   25.81   21.91
 -17  22  -3    2.26   15.78
 -22 -17   3   28.28   16.71
  17 -22   3   35.53   19.61
 -17  22   3   21.57   18.26
 -22 -18   0   10.89   17.39
 -18  22   0   13.50   18.37
  18 -22  -2   14.34   23.19
 -18  22  -2  -15.21   17.12
 -22 -18   2  -10.53   16.66
  18 -22   2   -6.98   19.65
 -18  22   2    6.38   19.25
 -22 -19   1  -22.43   18.03
 -22 -21   1    6.26   19.09
  19  23  -2  -30.61   18.96
 -19 -23   2   18.68   16.06
 -23  19   2   37.47   20.10
  23 -18  -1   35.49   21.63
  18  23  -1    0.91   18.76
 -18 -23   1    2.70   19.02
 -18 -23   1  -22.11   16.55
  23 -17   0    6.69   22.30
 -23  17   0  -21.54   21.21
  23 -17  -2   -6.61   19.68
 -23  17  -2    0.90   17.64
  17  23  -2  -14.20   17.86
  17  23  -2   23.66   17.92
 -23  17   2  -39.91   19.05
 -17 -23   2   -0.85   18.46
 -17 -23   2   17.98   14.93
 -16 -23   1   11.41   14.74
  23 -16  -1   -8.53   18.82
  23 -16  -1  -16.87   19.71
  16  23  -1   12.96   17.90
  16  23  -1   -5.12   17.89
 -16 -23   1    0.87   18.30
 -23  16   1  -25.35   19.83
 -23  16  -3   19.42   17.25
 -15 -23   0   11.14   15.53
  23 -15   0   -6.76   18.95
  23 -15   0   10.45   21.32
  15  23   0   -9.08   19.03
  15  23   0   -2.66   18.53
 -15 -23   0   31.58   18.41
 -23  15   0   -4.67   20.05
 -15 -23   2   21.86   14.46
  23 -15  -2   17.18   18.71
 -23  15  -2    0.88   17.76
  15  23  -2    9.25   16.76
  23 -15  -2  -17.14   19.37
  15  23  -2  -10.52   17.30
 -15 -23   2   -4.12   17.98
 -23  15   2    0.76   17.67
 -23  14  -1   23.81   21.44
 -14 -23   1  -11.45   14.77
  23 -14  -1   -0.79   17.45
  23 -14   1   12.03   19.31
  23 -14  -1   13.76   19.31
 -14 -23  -1   25.85   15.70
  14  23   1   29.54   19.95
  14  23  -1   16.99   16.79
  14  23  -1   -1.61   16.91
 -14 -23  -1  -23.37   19.94
 -14 -23   1    7.62   18.21
  14  23   1    2.60   17.82
 -23  14   1   21.43   18.91
 -23  14  -3    3.33   16.92
  23 -14  -3  -15.40   18.13
  14  23  -3   13.07   17.05
 -14 -23   3  -13.70   18.88
  23 -13   0    5.47   17.96
 -13 -23   0  -14.95   15.05
  23 -13   0  -16.39   19.35
  13  23   0    2.66   18.47
 -13 -23   0   -9.63   17.65
  13  23   0   -0.79   16.32
 -23  13   0   -7.14   20.54
 -23  13   0   60.11   18.56
 -13 -23   2  -16.37   13.83
  23 -13   2   25.71   19.36
  23 -13  -2   14.08   16.65
 -13 -23  -2  -17.65   15.35
 -23  13  -2  -10.38   18.03
  23 -13  -2   10.86   17.55
  13  23  -2   -9.28   15.82
  13  23  -2  -17.00   17.37
 -13 -23   2   -5.74   18.03
 -23  13   2    7.77   16.30
 -13 -23  -4   -0.80   17.71
  23 -13  -4  -26.78   18.61
 -23  12  -1   -4.81   22.16
 -23  12  -1  -18.83   17.43
  23 -12  -1    0.72   16.60
  23 -12   1  -43.17   18.61
 -12 -23   1   27.04   14.28
 -23  12  -1   20.44   18.33
 -12 -23  -1   27.39   16.27
 -12 -23  -1    3.81   13.89
  12  23   1    4.63   18.41
  12  23  -1   -2.53   17.50
  23 -12   1   -6.34   19.67
 -12 -23  -1  -23.62   18.73
 -12 -23   1   -9.90   17.68
 -23  12   1   10.94   17.76
  12  23   1   12.40   17.11
  23 -12   3   22.18   19.62
 -12 -23  -3   40.01   17.34
  23 -12  -3   13.26   17.35
 -23  12  -3    9.79   16.71
  12  23  -3   -1.54   16.95
 -12 -23   3   24.93   19.08
 -23  11   0   22.66   17.28
 -23  11   0    8.58   19.20
  23 -11   0    1.44   15.69
 -11 -23   0    2.07   14.59
 -11 -23   0    3.46   12.81
  11  23   0   24.43   18.39
 -11 -23   0   -7.67   17.49
  11  23   0    1.50   16.27
 -23  11  -2   11.43   22.36
  11  23   2   38.23   18.36
 -23  11  -2   -5.12   17.34
  23 -11   2    0.83   18.49
 -11 -23  -2   -9.00   15.89
 -11 -23   2   -8.10   13.25
 -23  11  -2  -14.45   17.59
  23 -11  -2   48.93   19.96
  23 -11  -2   -4.88   16.20
  11  23   2   -2.90   18.44
 -11 -23  -2    7.30   16.33
  11  23  -2    4.81   17.38
  11  23  -2    8.65   14.72
  23 -11   2   13.66   20.14
 -11 -23  -2   -4.71   18.86
 -23  11   2   27.51   18.82
 -11 -23   2    7.35   17.81
 -23  11   2   -9.85   16.15
 -11 -23   4  -19.80   19.80
  11  23   4    0.75   16.05
 -11 -23  -4    0.82   17.88
  23 -11  -4   12.87   17.27
 -23  11  -4  -13.94   16.24
 -23  10  -1   39.50   21.08
 -23  10  -1   28.94   17.67
  10  23   1   -0.79   16.65
 -10 -23   1    8.52   12.26
  23 -10  -1   -0.66   15.29
  23 -10   1   14.12   17.21
 -23  10  -1  -23.70   17.89
 -10 -23  -1   -6.38   14.09
 -10 -23   1   -0.93   13.04
 -10 -23   1   20.54   14.17
  23 -10  -1   20.12   18.98
 -10 -23  -1    8.87   15.40
  10  23   1   -7.20   18.73
  10  23  -1    0.83   17.09
  23 -10   1   14.96   18.80
 -10 -23  -1   -7.08   18.25
 -10 -23   1    3.28   17.92
  10  23  -1  -18.88   14.78
 -23  10   1    5.94   17.37
  23 -10   3   -8.72   18.24
  10  23   3    3.09   13.87
 -10 -23  -3   -8.18   17.29
  23 -10  -3    6.72   15.96
 -23  10  -3   28.23   16.59
  10  23  -3  -20.90   16.90
 -10 -23   3   18.82   18.30
 -23   9   0    8.40   19.70
   9  23   0   -3.60   15.74
  23  -9   0    3.96   14.98
 -23   9   0   -9.96   17.77
  -9 -23   0  -11.66   13.64
   9  23   0   20.38   17.52
  -9 -23   0  -14.73   14.33
  -9 -23   0   -9.20   17.38
 -23   9  -2   57.53   22.67
 -23   9  -2  -19.04   17.29
   9  23   2  -16.70   17.66
  -9 -23   2  -12.77   12.87
  23  -9   2  -13.31   17.98
   9  23   2  -18.01   12.49
  -9 -23  -2   14.05   15.64
 -23   9  -2   -5.06   17.06
  23  -9  -2  -16.89   19.00
  23  -9  -2   -4.99   15.07
   9  23   2   24.33   19.93
   9  23  -2   14.32   16.90
  23  -9   2   17.68   19.20
  -9 -23   2    1.10   12.94
  -9 -23  -2    6.43   17.84
 -23   9   2  -17.83   18.48
  -9 -23  -2    7.94   16.24
  -9 -23   2   20.28   17.81
 -23   9   2   28.85   15.73
  -9 -23   4  -32.39   20.04
   9  23   4    5.22   16.45
  -9 -23  -4  -17.67   18.67
  23  -9  -4   43.44   17.06
   9  23  -4    2.28   16.59
 -23   9  -4   -1.55   15.64
 -23   8   1   37.41   18.16
   8  23  -1   46.99   14.91
 -23   8  -1   32.36   20.24
  23  -8  -1   38.76   15.25
   8  23   1   42.54   16.85
  23  -8   1   71.10   16.67
 -23   8  -1   13.05   17.74
   8  23   1   50.58   11.15
  -8 -23  -1   33.37   14.61
  -8 -23   1   24.20   14.08
  23  -8  -1   75.23   19.80
   8  23   1   42.33   18.35
   8  23  -1   32.45   17.40
  -8 -23  -1   68.35   18.18
  -8 -23   1    4.22   13.53
  -8 -23   1   43.55   18.40
 -23   8   1   85.62   17.66
  -8 -23  -1   33.98   15.37
 -23   8  -3  -18.13   23.35
  -8 -23   3    2.04   13.25
  -8 -23  -3  -15.29   17.22
 -23   8  -3   21.20   17.86
  -8 -23   3   20.29   11.82
  23  -8   3  -15.65   18.39
   8  23   3   28.33   17.97
   8  23   3  -10.52   14.44
  -8 -23  -3  -16.03   17.48
  23  -8  -3  -15.30   18.48
  23  -8  -3  -11.08   14.61
 -23   8  -3    7.24   16.24
   8  23  -3    7.83   17.03
  -8 -23  -3   19.97   19.46
 -23   8   3    6.13   18.72
  23  -8   3    9.87   18.65
  -8 -23   3    5.01   19.08
   8  23   5   15.87   18.55
 -23   7   0  -14.76   16.71
 -23   7   0   -3.29   19.13
  -7 -23   0    8.49   14.45
   7  23   0    0.69   14.55
  23  -7   0   14.58   15.23
 -23   7   0   19.72   18.66
  -7 -23   0   -3.95   14.70
  23  -7   0  -23.31   17.89
   7  23   0   -2.48   17.12
  -7 -23   0  -10.01   17.19
 -23   7  -2   -1.02   21.70
  -7 -23   2   -0.50   13.18
  23  -7   2  -33.56   16.34
  -7 -23  -2   14.00   16.46
  -7 -23   2    5.83   12.34
   7  23   2   -4.01   17.33
   7  23   2   19.10   12.62
  -7 -23  -2    9.00   15.95
  23  -7  -2   31.69   19.29
 -23   7  -2  -21.63   16.70
  23  -7  -2   -6.66   13.77
   7  23  -2   16.73   16.99
 -23   7   2   -3.25   17.27
   7  23  -2   -1.67   12.88
  -7 -23   2    2.46   18.13
 -23   7   2   18.46   15.28
  -7 -23   4    6.13   19.21
  23  -7   4   -1.78   19.18
   7  23   4  -12.00   16.33
  -7 -23  -4  -22.39   19.30
   7  23  -4   13.20   16.60
 -23   6   1   13.28   16.73
 -23   6  -1   10.98   20.33
 -23   6  -1   18.39   16.17
   6  23  -1   39.46   14.47
  23  -6  -1   18.19   13.86
  23  -6   1   30.74   15.40
   6  23   1   18.77   15.40
  -6 -23  -1   19.09   15.09
 -23   6   1   18.63   18.76
  -6 -23   1   25.70   13.16
 -23   6  -1    6.88   17.75
   6  23   1   18.67   10.74
  -6 -23  -1   -1.26   15.21
  -6 -23   1   12.89   14.23
  23  -6  -1  -10.63   17.92
   6  23   1   32.51   17.80
   6  23  -1   23.27   17.09
  23  -6   1   53.14   19.15
  -6 -23  -1    5.97   17.34
  -6 -23   1   -0.83   17.65
 -23   6   1   13.82   16.81
 -23   6  -3    5.61   23.34
  -6 -23   3   12.96   14.73
  -6 -23   3    7.51   11.14
  23  -6   3    7.77   17.08
 -23   6  -3   -1.66   16.91
   6  23   3   28.12   16.53
   6  23   3   -5.02   14.60
  -6 -23  -3   22.67   17.17
  23  -6  -3   18.12   18.54
  23  -6  -3   -1.13   14.28
   6  23   3    5.67   18.85
 -23   6  -3  -21.75   17.46
  -6 -23  -3   -0.83   16.18
   6  23  -3    2.38   17.06
 -23   6   3   15.88   17.80
  -6 -23  -3  -13.01   18.17
  -6 -23   3   25.48   19.47
 -23   6  -5    5.06   14.66
  -6 -23   5   15.06   21.28
   6  23   5   -7.09   18.47
 -23   5   0  -11.22   15.80
 -23   5   0   16.91   18.40
  23  -5   0    2.21   13.49
   5  23   0   11.13   14.39
 -23   5   0   14.22   18.92
  -5 -23   0   15.04   14.91
  -5 -23   0  -11.46   14.15
   5  23   0   -4.03    7.80
  23  -5   0    3.23   17.86
   5  23   0  -26.05   16.64
  -5 -23   0    5.79   17.43
 -23   5   2   -1.65   15.09
   5  23  -2   12.23   12.85
  -5 -23   2   36.55   12.57
 -23   5  -2    6.05   20.80
  23  -5  -2    8.70   12.69
  -5 -23   2   31.73   13.79
  23  -5   2   12.88   15.95
 -23   5   2   24.35   19.48
   5  23   2   11.49   16.27
   5  23   2    6.00   12.48
  -5 -23  -2   12.83   16.71
  23  -5  -2   11.52   18.37
  23  -5  -2   -6.89   13.00
 -23   5  -2    9.10   17.09
   5  23  -2   20.02   16.82
  -5 -23  -2  -19.07   15.11
  23  -5   2   11.70   18.01
 -23   5   2  -10.86   16.55
  -5 -23   2   -5.03   18.56
  -5 -23   4  -29.19   20.75
  -5 -23   4   13.19   15.19
  23  -5   4   -5.95   17.99
   5  23   4   -3.02   16.57
  23  -5  -4  -21.87   18.36
  -5 -23  -4    1.75   18.52
   5  23  -4   11.80   17.26
 -23   5   4  -15.84   19.71
 -23   5  -4   23.71   15.36
 -23   4   1   -9.61   16.71
 -23   4  -1   22.99   16.10
 -23   4  -1   29.69   20.21
  23  -4  -1   23.35   12.96
  -4 -23   1   11.88   12.43
  23  -4   1  -15.77   14.49
   4  23  -1   23.74   13.42
   4  23   1    8.97   15.03
  -4 -23  -1   12.55   15.36
   4  23   1    2.67   11.14
 -23   4  -1  -13.58   17.28
  23  -4  -1   10.24   17.04
   4  23   1   24.14   17.55
   4  23  -1    2.42   16.32
  23  -4   1   14.49   17.18
  -4 -23   1    8.27   17.25
 -23   4   1   15.48   16.43
  -4 -23  -1    9.00   14.74
  -4 -23   3   -8.77   19.66
 -23   4  -3   -8.86   22.48
  -4 -23   3   -9.82   15.08
  23  -4   3    4.40   16.85
  -4 -23  -3   -3.27   15.83
   4  23   3    7.03   14.69
  -4 -23  -3   13.62   17.80
  23  -4  -3   -1.65   17.79
  23  -4  -3    1.54   13.41
   4  23   3    0.82   16.68
   4  23   3   -5.54   19.36
 -23   4  -3    8.12   16.80
   4  23  -3   -3.99   17.47
 -23   4   3   -4.78   17.29
  -4 -23  -3   -9.10   18.53
  23  -4   3    7.71   17.94
  -4 -23   5  -25.41   22.29
 -23   4  -5  -17.05   15.50
   4  23   5   22.45   19.05
   4  23  -5   -3.95   17.29
 -23   3   0    0.72   15.33
 -23   3   0   22.28   18.68
  23  -3   0   19.87   13.00
   3  23   0  -15.61   14.32
 -23   3   0  -23.66   17.67
  -3 -23   0  -13.47   16.13
  -3 -23   0   -1.87   13.58
  23  -3   0   -3.13   17.69
   3  23   0   -6.12    9.49
   3  23   0   -6.47   16.23
  -3 -23   0   -9.19   17.82
 -23   3   2    7.56   15.37
  -3 -23   2    7.81   12.26
 -23   3  -2   51.61   21.66
  23  -3  -2   37.42   12.07
  -3 -23   2   21.91   15.35
   3  23  -2   36.73   12.98
 -23   3  -2   26.51   15.83
  23  -3   2   16.81   14.56
 -23   3   2   10.61   20.15
   3  23   2   26.68   13.24
  -3 -23  -2   25.65   17.12
  23  -3  -2   35.06   12.14
  23  -3  -2   41.33   18.32
   3  23   2   50.10   16.17
  -3 -23  -2   59.81   15.95
 -23   3  -2   19.87   17.44
   3  23   2   96.71   19.11
   3  23  -2    8.01   16.58
  23  -3   2   28.34   17.98
  -3 -23  -2    8.68   17.98
 -23   3   2   16.25   16.63
  -3 -23   2   -1.72   19.64
  -3 -23   4   -5.66   20.82
 -23   3  -4   -3.16   17.66
  -3 -23   4   -5.48   16.33
  23  -3   4   17.03   18.19
  23  -3  -4  -12.49   17.88
   3  23   4  -13.83   16.84
  -3 -23  -4   26.78   19.32
   3  23   4   12.41   19.27
 -23   3   4    6.69   18.28
   3  23  -4   -1.61   17.11
  -3 -23  -4    3.75   18.82
 -23   3  -4  -12.03   15.69
 -23   2   1   14.28   17.11
 -23   2  -1    0.72   15.24
 -23   2  -1   10.61   19.39
  23  -2  -1   14.64   11.96
  23  -2   1   20.94   13.56
  -2 -23  -1    2.03   14.22
   2  23  -1   18.10   13.52
  -2 -23  -1   22.15   16.04
   2  23   1    5.32   11.38
 -23   2  -1   11.79   16.59
  23  -2  -1   18.95   17.46
   2  23   1    3.30   13.94
   2  23  -1   -0.80   16.77
  23  -2   1   16.44   17.36
  -2 -23   1   21.91   18.10
  -2 -23   1    3.86   13.01
   2  23  -1    0.94    5.02
 -23   2   1   38.81   16.25
  -2 -23   3   28.18   20.16
  -2 -23  -3   34.59   16.22
 -23   2  -3   14.24   22.50
  -2 -23   3    0.66   15.38
  23  -2   3    1.37   16.08
 -23   2   3   19.15   19.91
   2  23   3   19.64   15.55
  -2 -23  -3  -11.47   18.12
  23  -2  -3   -7.05   17.80
   2  23   3   -5.41   18.97
   2  23   3   -9.57   16.94
   2  23  -3   11.41   17.71
 -23   2   3   18.88   16.75
  -2 -23  -3    2.68   18.64
 -23   2  -3   13.80   16.23
  23  -2   3    6.68   17.78
  -2 -23   5   -3.06   22.19
 -23   2  -5  -10.63   16.14
  -2 -23   5  -31.18   17.55
 -23   2   5  -10.63   21.79
  23  -2   5   28.06   18.84
   2  23   5  -16.29   19.66
 -23   2   5    0.89   19.78
   2  23  -5  -20.44   17.41
 -23   1   0  -13.91   15.82
 -23   1   0   26.55   17.76
  -1 -23   0   -3.67   13.54
  23  -1   0   12.08   11.92
 -23   1   0  -15.51   16.56
  -1 -23   0   -2.72   15.40
   1  23   0  -20.82   13.29
  23  -1   0   11.30   17.04
   1  23   0   -4.55   10.39
   1  23   0  -28.28   17.03
  -1 -23   0    8.45   17.96
 -23   1   2  -17.79   15.20
  -1 -23   2  -27.48   16.14
  23  -1  -2    7.07   10.40
 -23   1  -2   -6.90   20.77
 -23   1  -2    8.13   15.72
  23  -1   2   -7.99   13.25
  -1 -23  -2   10.31   15.71
   1  23  -2   -2.51   12.66
 -23   1   2   12.35   18.96
  -1 -23  -2   -6.07   17.85
   1  23   2    5.43   13.37
  23  -1  -2    2.98   11.14
  23  -1  -2  -27.49   17.04
   1  23   2    5.89   16.89
 -23   1  -2    3.34   16.84
   1  23   2    7.13   15.45
   1  23  -2    0.81   17.14
  23  -1   2   -7.11   17.21
  -1 -23  -2   -4.34   17.60
 -23   1   2    6.36   16.25
  -1 -23   2  -42.13   19.20
 -23   1  -4  -16.95   16.37
  -1 -23   4  -21.69   22.47
 -23   1  -4   -2.29   17.77
  -1 -23   4   11.12   16.96
  23  -1   4   32.41   17.00
 -23   1   4    4.16   21.64
  23  -1  -4  -12.62   17.34
   1  23   4    6.30   17.77
  -1 -23  -4  -14.56   19.86
   1  23   4  -28.86   19.64
 -23   1   4  -11.12   17.82
   1  23  -4    5.83   16.90
  -1 -23  -4   17.43   19.23
 -23   0   1    2.04   14.82
 -23   0   1   -0.67   16.78
 -23   0  -1  -12.60   15.46
 -23   0  -1  -14.92   18.97
  23   0  -1   -8.35   10.49
  23   0   1  -13.32   12.12
 -23   0   1  -39.28   19.38
   0 -23  -1   15.94   16.97
   0  23   1    5.77   11.86
  23   0  -1   23.22   16.87
   0  23  -1   -8.09   12.09
 -23   0  -1   31.99   17.28
   0  23  -1    7.29   16.17
  23   0   1  -21.18   16.97
   0  23   1  -15.21   13.87
   0 -23  -1   22.14   18.03
   0  23  -1   -1.40    7.48
   0 -23   1   12.11   18.31
   0 -23   3   18.02   20.92
 -23   0  -3   -0.63   15.24
 -23   0  -3  -27.12   23.15
   0 -23   3    0.71   16.83
  23   0   3   18.04   15.01
 -23   0   3    5.94   20.00
  23   0  -3  -18.77   17.24
   0 -23  -3   15.14   18.84
   0  23   3   10.88   16.09
   0  23   3   67.54   18.17
   0  23  -3   20.89   17.09
   0  23   3   26.53   15.28
 -23   0   3   -9.35   15.88
   0 -23  -3   -0.89   17.79
  23   0   3   18.85   18.33
 -23   0  -3   30.51   16.81
   0 -23   5   -6.36   22.37
 -23   0  -5   -1.77   20.26
 -23   0  -5    8.57   16.09
   0 -23   5  -26.94   18.54
  23   0  -5  -29.85   18.09
  23   0   5   -6.11   18.57
 -23   0   5    8.37   20.85
   0  23   5   14.82   20.04
 -23   0   5    6.77   19.32
   0  23  -5   -7.69   17.79
 -23  -1   0   28.75   14.89
 -23  -1   0   27.14   17.99
  23   1   0    4.98   10.67
  23   1   0   11.62   16.36
  -1  23   0    3.74   10.97
  -1  23   0   -1.62   16.63
  -1  23   0   -6.82   12.84
   1 -23   2   63.68   20.59
 -23  -1   2   -2.71   15.01
   1 -23   2   -0.69   16.13
 -23  -1  -2   20.50   20.61
 -23  -1  -2   12.33   15.32
   1 -23   2   10.37    7.46
  23   1   2   -0.52   12.54
 -23  -1   2   18.51   18.94
   1 -23  -2   -6.29   17.48
  -1  23   2   18.64   14.21
  23   1  -2    2.81   16.35
  -1  23  -2    3.40   11.79
  -1  23   2   22.41   17.10
  -1  23  -2   -7.47   17.35
  23   1   2   10.77   16.86
   1 -23  -2   30.41   18.49
 -23  -1   2   28.30   15.67
  -1  23   2   30.05   14.94
   1 -23   4  -19.55   22.60
 -23  -1  -4    5.53   16.99
 -23  -1  -4  -31.10   17.49
   1 -23   4   15.06   17.80
  23   1   4  -26.52   16.83
  23   1  -4    6.70   16.55
 -23  -1   4   -4.07   20.80
   1 -23  -4   -1.86   20.05
  -1  23   4  -25.88   18.68
  -1  23   4  -22.90   18.66
 -23  -1   4  -25.45   17.08
  -1  23  -4   -9.52   17.60
   1 -23  -4   -5.38   19.16
 -23  -2   1   31.38   15.49
  -2  23   1    4.99   13.62
 -23  -2   1   19.38   15.94
 -23  -2  -1   10.89   14.36
 -23  -2  -1  -10.47   18.91
  23   2  -1   25.04    8.61
   2 -23   1   10.15    9.99
  23   2   1   21.46   10.84
   2 -23  -1   13.70   17.31
 -23  -2   1   22.58   17.72
  23   2  -1    3.45   16.45
  -2  23   1   15.49   13.10
 -23  -2  -1    2.54   17.56
  -2  23   1    6.54   16.74
  -2  23  -1   57.64   16.96
  23   2   1   16.15   16.26
  -2  23  -1   21.06   12.18
   2 -23  -1   17.17   18.11
  -2  23  -1   10.59    9.08
   2 -23   1   19.60   19.87
 -23  -2  -3   -2.39   16.96
  -2  23   3   24.08   15.66
   2 -23   3   36.32   21.43
 -23  -2  -3  -15.56   14.88
   2 -23   3    0.76   16.89
 -23  -2  -3   -2.16   22.08
  23   2   3    9.73   13.95
  23   2  -3   33.97   16.58
 -23  -2   3   45.03   19.59
   2 -23  -3    6.90   18.77
  -2  23   3   10.53   16.24
  -2  23   3    7.71   17.67
  -2  23  -3    3.45   17.75
 -23  -2   3   25.94   16.44
   2 -23  -3   16.81   18.35
  23   2   3   24.04   16.74
   2 -23   5  -11.07   22.83
 -23  -2  -5   11.33   19.08
   2 -23   5    5.23   19.28
 -23  -2  -5   12.08   16.51
  23   2  -5   -3.81   17.51
  23   2   5  -11.97   18.17
 -23  -2   5   54.77   20.41
 -23  -2   5   28.60   18.92
  -2  23  -5    5.41   18.48
   2 -23  -5   46.58   19.65
  -3  23   0   14.52   12.44
 -23  -3   0    4.54   15.28
 -23  -3   0    7.73   17.44
  23   3   0   -3.73    8.94
  23   3   0  -14.65   16.76
  -3  23   0    1.70   12.00
   3 -23   2  -18.95   20.98
  -3  23  -2   -2.24    8.73
 -23  -3   2   10.99   14.93
  -3  23   2    9.83   14.25
   3 -23   2   -5.88   16.82
 -23  -3  -2   42.96   21.29
  23   3   2   22.31   12.50
   3 -23   2    9.05   10.12
   3 -23  -2  -17.14   17.93
  23   3  -2   -5.97   15.39
 -23  -3   2  -14.35   18.09
  -3  23   2   -0.60   15.20
 -23  -3   2    5.27    9.82
  -3  23   2  -12.43   17.32
  -3  23  -2   18.66   11.58
  -3  23  -2   15.36   17.59
  23   3   2   -3.76   16.42
   3 -23  -2   -2.61   18.12
 -23  -3  -2   11.24   17.11
 -23  -3   2  -12.86   14.96
   3 -23   4  -35.45   23.44
 -23  -3  -4   31.62   16.14
 -23  -3  -4   19.59   16.85
   3 -23   4    6.75   18.07
  23   3   4    5.73   15.69
  23   3  -4   35.76   16.42
 -23  -3   4  -20.51   19.71
  -3  23   4   16.82   19.37
  -3  23   4   16.07   18.48
 -23  -3   4  -10.64   17.00
  -3  23  -4   16.31   19.13
   3 -23  -4    2.66   18.28
   4 -23   1   19.38   19.99
 -23  -4   1   -2.51   14.50
  -4  23  -1   14.58   12.00
 -23  -4   1    0.67   16.04
 -23  -4  -1   13.29   14.92
  -4  23   1   -1.90   13.40
  23   4   1   17.66   10.19
   4 -23   1    7.57   11.08
   4 -23  -1    6.37   18.69
 -23  -4   1   -3.41   11.56
  23   4  -1   -3.92   15.87
 -23  -4   1  -29.18   17.38
  -4  23   1    6.34   14.39
  -4  23   1   18.05   16.97
  23   4   1   -7.79   16.54
  -4  23  -1  -40.47   18.72
 -23  -4  -1   28.76   15.70
  -4  23  -1    7.76   10.42
   4 -23  -1  -20.30   19.58
   4 -23   3   19.56   22.35
 -23  -4  -3  -13.06   16.13
 -23  -4  -3  -16.70   14.95
   4 -23   3   26.69   18.68
  -4  23   3   11.83   16.22
  23   4   3    4.70   13.59
  23   4  -3   23.61   15.73
   4 -23  -3    1.78   19.38
  -4  23   3   -9.41   16.39
 -23  -4   3   15.66   19.05
  -4  23   3   -8.48   17.85
  -4  23  -3   31.42   18.99
   4 -23  -3   33.38   18.44
 -23  -4   3    3.25   15.46
  23   4   3   12.64   17.26
 -23  -4  -5   10.28   19.68
  23   4  -5    3.56   16.43
  23   4   5   17.64   17.80
 -23  -4   5  -15.32   18.80
  -4  23   5  -31.37   19.49
 -23  -4   5    4.46   17.19
   4 -23  -5   -4.54   18.93
 -23  -5   0   13.78   14.72
   5 -23   0    4.32   12.94
  23   5   0   -9.14    6.90
  -5  23   0    1.14   12.76
 -23  -5   0   -1.75   12.83
  23   5   0   11.97   15.99
 -23  -5   0   11.96   16.76
  -5  23   0  -21.05   12.77
   5 -23   0  -10.87   19.45
 -23  -5  -2   62.10   17.26
 -23  -5   2   35.61   14.64
   5 -23   2   30.73   20.52
  -5  23  -2   53.78   11.46
  -5  23  -2   18.14    9.76
 -23  -5  -2    2.62   12.17
   5 -23   2   43.08   17.64
 -23  -5   2   -8.99   15.07
  23   5   2   23.52   12.41
  -5  23   2   30.41   15.05
   5 -23   2   14.78   12.28
   5 -23  -2   12.74   18.68
  23   5  -2    2.49   14.95
  -5  23   2   19.05   15.27
 -23  -5   2   67.42   19.01
 -23  -5   2   12.70   10.40
  -5  23   2   40.06   18.04
  -5  23  -2   44.91   17.68
  23   5   2   39.67   16.36
   5 -23  -2   33.25   19.08
   5 -23   4   -2.23   23.34
 -23  -5  -4   -7.80   16.72
   5 -23   4  -10.74   19.48
 -23  -5  -4   -5.00   16.32
  23   5   4    5.68   19.21
  23   5   4   -7.76   15.92
  23   5  -4    4.61   15.67
  -5  23   4   32.91   19.67
 -23  -5   4  -20.50   19.44
  -5  23   4   15.87   17.89
 -23  -5   4   20.73   16.39
  -5  23  -4  -34.63   20.48
   5 -23  -4   55.81   19.47
 -23  -6   1    7.77   13.70
 -23  -6  -1   10.42   15.35
   6 -23  -1   36.60   13.93
  23   6   1    4.78    9.42
   6 -23   1   23.66   12.46
  -6  23  -1    3.59   11.25
  -6  23   1   13.83   14.36
   6 -23  -1  -22.43   17.95
 -23  -6  -1    9.07   15.31
 -23  -6   1   12.29   11.93
  23   6  -1   11.08   15.18
  -6  23   1  -13.77   14.55
 -23  -6   1   19.69   17.54
  -6  23   1   10.03   16.60
  23   6   1  -16.50   16.24
  -6  23  -1   -4.79   11.33
   6 -23  -1  -11.72   20.01
   6 -23   3  -22.60   22.98
 -23  -6  -3   30.97   16.83
 -23  -6  -3   26.34   13.81
   6 -23   3  -25.77   19.34
  23   6   3  -23.36   19.89
  23   6   3   12.08   13.55
  -6  23   3   18.78   16.51
  23   6  -3   -1.23   14.60
   6 -23  -3   44.04   20.13
  -6  23   3   13.63   17.58
 -23  -6   3  -19.61   19.10
  -6  23   3    5.09   17.26
  -6  23  -3  -12.13   19.14
   6 -23  -3  -14.04   18.95
 -23  -6   3   -4.91   14.53
  23   6   3  -16.42   17.26
 -23  -6  -5    1.69   19.24
  23   6   5   20.83   18.13
 -23  -6   5   -4.55   17.67
  -6  23   5   13.67   19.22
   6 -23  -5  -22.24   18.99
   7 -23   0   14.09   19.38
 -23  -7   0   -5.44   13.85
   7 -23   0    7.00   13.60
 -23  -7   0   -2.41   13.39
  -7  23   0   -4.18   13.19
  23   7   0   -2.54   15.72
  -7  23   0   12.02   17.06
  -7  23   0  -22.84   13.86
 -23  -7   0  -19.36   16.27
 -23  -7   2    2.33   14.06
   7 -23   2   12.49   21.11
 -23  -7  -2    5.01   17.31
  -7  23  -2   10.03   10.75
 -23  -7  -2   15.23   11.90
   7 -23   2   19.13   18.32
  23   7   2    7.36   19.28
  -7  23  -2    6.48   10.96
   7 -23   2   -5.42   13.59
   7 -23  -2  -27.32   19.40
  23   7  -2  -40.04   14.85
 -23  -7  -2    8.19   17.12
  -7  23   2   -0.76   15.54
  -7  23   2  -14.24   16.42
 -23  -7   2   33.73   11.21
 -23  -7   2  -10.38   16.81
  -7  23   2   20.13   17.07
  -7  23  -2  -20.08   18.89
  23   7   2  -30.36   16.41
   7 -23  -2    8.01   19.20
 -23  -7  -4  -12.55   16.66
  23   7   4   -2.10   15.91
  -7  23   4    9.79   18.75
 -23  -7   4   16.98   17.61
  -7  23   4  -26.02   18.59
 -23  -7   4   -5.64   15.74
   7 -23  -4    8.79   18.77
   8 -23  -1    0.93   19.84
   8 -23   1    4.92   18.34
 -23  -8   1  -14.82   14.41
   8 -23  -1    8.02   14.26
   8 -23   1    9.25   13.97
 -23  -8  -1   -1.42   14.95
  23   8  -1    5.20   14.03
 -23  -8   1   -8.83   12.81
  -8  23   1  -12.45   16.17
  -8  23  -1  -18.84   11.98
  -8  23   1  -27.31   17.87
  23   8   1   -1.34   15.83
  -8  23   1  -21.00   15.43
 -23  -8   1  -24.11   17.61
  -8  23  -1  -12.04   12.30
 -23  -8   3    4.01   14.12
   8 -23   3  -27.01   23.04
 -23  -8  -3    8.73   13.94
   8 -23   3   -2.73   19.79
 -23  -8  -3  -14.62   17.86
  23   8   3   -6.82   19.89
  23   8   3    1.69   13.70
  23   8  -3   20.61   14.23
   8 -23   3   43.10   14.59
  -8  23   3   23.88   18.14
 -23  -8  -3  -11.28   19.02
  -8  23   3    1.70   17.31
 -23  -8   3    7.87   17.73
  -8  23   3  -27.14   18.03
  -8  23  -3  -35.30   20.33
   8 -23  -3   49.74   19.51
  23   8   3  -20.10   17.18
 -23  -8  -5   20.00   19.30
  23   8   5    0.83   17.24
  -8  23   5  -24.26   19.27
 -23  -8   5    7.86   16.64
   8 -23  -5   44.78   18.93
   9 -23   0   -2.95   21.68
  -9  23   0  -15.38   13.72
 -23  -9   0   15.75   14.05
   9 -23   0    1.20   14.46
 -23  -9   0    0.63   13.99
  23   9   0   -2.42   14.16
  -9  23   0   14.15   17.44
  -9  23   0   14.71   13.97
 -23  -9   0  -31.06   17.57
   9 -23   2   34.92   23.22
  -9  23  -2   24.86   12.01
 -23  -9   2    0.54   13.97
 -23  -9  -2   26.52   16.94
   9 -23   2  -22.93   20.18
   9 -23  -2    1.40   15.70
  23   9   2   17.17   19.88
   9 -23   2    1.70   14.78
  23   9  -2   32.95   14.22
   9 -23  -2   42.20   20.64
 -23  -9  -2   23.28   17.29
  -9  23   2   11.60   16.93
 -23  -9   2   25.96   12.32
  -9  23   2  -38.22   18.37
  -9  23  -2   35.33   11.74
 -23  -9   2   19.36   16.65
  -9  23  -2    8.61   20.12
  23   9   2   23.55   16.42
  -9  23   2    5.61   16.59
   9 -23  -2   35.66   20.20
 -23  -9  -4   13.74   16.73
  -9  23   4   25.85   18.23
 -23  -9   4  -13.09   17.64
   9 -23  -4  -37.17   19.84
  10 -23  -1   15.51   20.83
  10 -23   1   48.85   22.57
 -23 -10  -1   -0.85   17.43
  10 -23   1   20.00   19.33
 -10  23  -1   15.17   12.72
 -10  23   1   -6.77   15.93
 -23 -10   1   18.21   13.46
  10 -23  -1  -11.45   15.62
  23  10   1   25.18   18.46
  10 -23   1   -7.43   15.13
  23  10  -1   -7.01   14.22
 -23 -10  -1   11.80   15.70
 -23 -10   1   -6.46   13.80
 -10  23   1  -11.49   15.82
 -10  23   1  -12.25   17.77
  23  10   1    5.17   15.81
 -10  23  -1   -2.78   18.98
 -23 -10   1    8.12   17.15
 -10  23  -1   -2.26   13.28
  23  10   3   27.01   17.05
  10 -23   3   20.81   16.02
 -23 -10  -3    5.74   19.67
 -10  23   3  -10.92   19.06
 -10  23   3   22.32   17.89
 -23 -10   3   22.69   16.79
  10 -23  -3   17.25   20.15
 -10  23   5  -10.57   19.26
  11 -23   0   19.64   22.30
 -23 -11   0   17.51   16.30
  23  11   0  -10.96   18.60
  11 -23   0   -7.38   16.06
 -11  23   0   15.33   15.51
 -23 -11   0    0.67   14.64
  23  11   0   -9.75   14.64
 -11  23   0    8.21   18.59
 -11  23   0  -13.56   14.97
  11 -23  -2   34.51   20.97
 -11  23  -2   18.96   12.78
 -23 -11   2   -6.46   12.40
  11 -23   2  -26.94   20.78
 -11  23   2   29.05   17.47
 -11  23  -2   -4.72   11.92
  11 -23  -2    6.03   16.13
  11 -23   2  -20.21   16.21
 -23 -11  -2    4.29   17.87
 -11  23   2  -10.03   17.63
 -23 -11   2   -2.24   13.45
 -11  23   2   11.30   18.52
  23  11   2  -33.04   16.64
 -23 -11   2   -4.08   17.23
 -11  23   4  -15.47   18.55
 -23 -11   4    9.66   16.69
  11 -23  -4  -18.05   19.96
  12 -23  -1   -8.16   22.01
 -23 -12   1  -18.97   17.51
  12 -23   1   -1.12   23.10
  12 -23   1   17.34   19.21
 -23 -12  -1   -4.33   17.17
  12 -23  -1   19.16   16.79
  23  12   1   -6.74   18.52
  12 -23   1    0.69   16.67
 -12  23   1    7.27   16.65
  23  12  -1  -10.54   13.49
 -23 -12  -1    1.53   15.49
 -12  23  -1    8.96   13.78
 -23 -12   1  -18.42   14.78
 -12  23   1  -18.17   16.87
 -12  23   1  -14.43   18.64
  23  12   1    3.78   15.42
 -12  23  -1  -11.65   19.36
 -12  23  -1   -6.95   14.91
  23  12   3   -9.28   17.03
  12 -23  -3  -18.83   20.88
 -12  23  -3    9.76   13.04
  12 -23  -3  -15.92   18.18
  12 -23   3   16.67   16.92
 -12  23   3  -16.85   20.23
 -12  23   3  -12.12   17.76
 -23 -12   3  -14.58   16.97
  13 -23   0    5.46   22.78
 -23 -13   0   11.91   16.66
  23  13   0   16.92   19.17
  13 -23   0   35.51   17.29
 -23 -13   0   13.46   15.34
  23  13   0    8.68   14.01
 -13  23   0   -7.56   20.36
 -13  23   0   -2.11   16.74
 -13  23   0   34.85   16.03
  13 -23  -2  -11.08   22.73
 -23 -13   2   -9.03   16.95
 -13  23  -2    3.77   14.13
  13 -23  -2    2.43   17.39
  13 -23   2   14.06   17.31
 -23 -13  -2  -10.57   18.12
 -13  23   2   11.51   18.30
 -13  23   2    7.12   18.48
 -13  23  -2   21.90   13.53
  23  13   2  -19.57   16.33
 -23 -13   4    6.40   15.99
  13 -23  -4   -4.70   20.48
 -13  23   4  -19.03   18.29
 -14  23  -1    1.40   15.93
  14 -23  -1   24.78   23.28
 -14  23   1   37.21   17.95
 -23 -14   1   21.83   17.21
 -14  23  -1   24.47   15.24
  14 -23  -1    7.17   17.25
  14 -23   1   16.63   17.02
 -23 -14  -1  -37.61   17.24
 -23 -14   1   11.83   15.75
 -14  23   1  -11.70   17.63
 -14  23   1   35.32   19.31
  23  14   1    6.13   14.81
  23  14   3    0.78   16.90
  14 -23  -3    2.99   21.73
 -23 -14   3   -0.82   16.87
 -14  23  -3   -3.23   14.37
  14 -23   3  -19.28   17.99
 -14  23   3   17.52   18.41
  15 -23   0    4.02   17.65
 -15  23   0    0.82   16.95
 -23 -15   0   -9.16   16.31
 -15  23   0   -3.06   17.19
  15 -23  -2   -9.58   22.22
 -15  23  -2   25.94   15.66
 -23 -15   2   11.65   17.52
  15 -23   2  -16.29   18.30
 -15  23  -2    2.53   13.98
 -15  23   2   14.93   19.37
 -15  23   2   -0.91   19.01
  23  15   2  -18.81   16.43
 -16  23  -1    9.96   16.26
 -16  23  -1    8.32   16.47
  16 -23  -1   32.07   19.35
  16 -23   1   12.39   18.60
 -23 -16  -1   20.30   17.04
 -23 -16   1    6.76   17.10
 -16  23   1   22.68   18.79
  23  16   3   10.98   17.47
  16 -23  -3   11.52   22.15
 -23 -16   3  -22.20   17.39
 -16  23  -3  -20.13   15.26
  16 -23   3   14.70   18.77
 -16  23   3    9.83   18.34
  17 -23   0  -22.05   20.21
 -23 -17   0   16.47   17.06
 -17  23   0   19.12   18.02
 -17  23   0    0.83   17.93
 -17  23  -2   -2.32   16.34
  17 -23   2   18.62   19.59
 -18  23  -1  -10.00   17.60
 -18  23  -1   18.68   16.58
 -23 -18   1   -6.52   18.18
 -23 -19   0   -7.93   18.23
 -23 -20   1   -2.64   19.28
 -18 -24   2   38.53   20.05
 -18 -24   2   17.60   15.97
 -17 -24   1   32.50   15.88
  24 -17  -1  -18.90   21.19
  17  24  -1    3.64   18.63
 -24  17   1    4.64   19.99
  24 -16   0   88.23   23.73
 -24  16   0   38.54   22.31
 -16 -24   2   15.06   14.92
 -24  16  -2   24.07   18.19
  16  24  -2    0.82   17.84
  16  24  -2   21.31   18.05
 -16 -24   2    9.74   19.62
  24 -15  -1   52.25   19.27
 -15 -24   1  -10.03   15.03
  24 -15  -1    2.92   19.79
  15  24  -1   12.55   18.32
  15  24  -1    2.57   17.83
 -15 -24   1  -11.64   19.22
 -24  15   1    8.76   19.54
 -24  15  -3  -44.69   18.74
  24 -14   0  139.17   20.44
 -14 -24   0   77.47   17.27
  14  24   0   95.57   21.39
 -14 -24   0   78.53   21.15
 -24  14   0   65.14   22.14
 -14 -24   2   12.92   14.20
 -24  14  -2   39.17   18.98
  24 -14  -2   -4.97   18.68
  14  24  -2   14.53   16.97
  14  24  -2  -28.00   18.01
 -14 -24   2   -8.66   18.66
 -24  14   2    5.97   17.62
 -24  13  -1   -1.00   21.84
  24 -13  -1   30.94   17.82
  24 -13   1    0.85   19.01
 -13 -24   1   21.86   14.73
 -24  13  -1   21.52   18.85
 -13 -24  -1  -21.62   15.95
  13  24  -1   13.27   18.59
  13  24  -1    0.81   17.18
 -13 -24   1   27.39   18.61
  13  24   1   -6.17   18.47
 -24  13   1   12.46   19.41
  24 -13  -3  -14.06   17.71
 -24  13  -3   33.49   17.22
  13  24  -3   35.09   17.86
 -13 -24   3   43.06   19.56
 -24  12   0   30.85   20.65
  24 -12   0   35.37   18.03
 -12 -24   0   13.86   16.00
  12  24   0    0.92   18.69
 -12 -24   0   12.59   18.94
  12  24   0   38.58   17.51
  24 -12   2  -17.63   18.93
 -12 -24  -2  -15.03   16.02
 -12 -24   2    2.47   14.08
 -24  12  -2   23.38   18.10
  24 -12  -2  -18.69   17.62
  12  24  -2  -10.01   15.69
  12  24  -2    9.37   17.95
 -12 -24   2   27.57   19.21
 -24  12   2    4.87   16.87
 -12 -24  -4  -10.83   18.67
  11  24   1   10.97   17.24
 -24  11  -1    5.87   21.61
 -24  11  -1   10.51   17.67
  24 -11  -1   20.49   16.34
  24 -11   1   27.69   17.95
 -24  11  -1  -32.31   19.32
 -11 -24  -1  -17.70   15.06
 -11 -24   1   -9.25   14.65
 -11 -24  -1   -3.89   16.21
  11  24   1   32.30   19.74
  11  24  -1   14.94   18.46
 -11 -24  -1   -3.73   19.21
  11  24  -1   33.89   15.97
 -11 -24   1   14.70   18.46
 -24  11   1    7.11   17.82
  24 -11   3   -9.17   18.61
 -11 -24  -3   22.58   17.02
  24 -11  -3    8.55   16.31
 -24  11  -3   11.02   17.09
  11  24  -3   17.84   17.71
 -11 -24   3   23.12   19.46
  10  24   0   36.12   17.24
 -24  10   0   43.94   20.22
  24 -10   0  -12.11   16.61
 -24  10   0   29.50   19.23
 -10 -24   0   17.82   14.29
  10  24   0    3.62   18.54
 -10 -24   0   36.12   15.77
 -24  10  -2    4.30   23.33
  10  24   2  -16.76   18.26
  24 -10   2   48.86   18.71
 -10 -24  -2   -5.46   16.35
 -24  10  -2    5.32   18.02
  24 -10  -2    6.04   15.50
  10  24  -2  -11.72   17.46
  10  24  -2  -17.52   15.38
 -10 -24   2  -10.03   13.60
 -10 -24  -2  -15.85   17.09
 -10 -24   2  -29.00   19.25
 -24  10   2  -31.89   16.77
 -10 -24   4  -10.53   20.28
 -10 -24  -4  -13.68   19.36
 -24  10  -4   34.19   15.88
 -24   9   1    2.27   18.34
 -24   9  -1   -0.97   21.45
   9  24   1    3.22   16.34
  -9 -24   1    5.66   12.83
  24  -9  -1    3.86   15.14
  24  -9   1   24.30   16.69
 -24   9  -1  -23.79   18.12
  -9 -24  -1    8.70   14.84
  -9 -24   1  -10.38   13.75
  24  -9  -1   -5.37   18.95
   9  24   1   15.83   18.72
   9  24  -1  -35.94   18.38
  -9 -24  -1   21.86   18.45
  -9 -24   1  -13.46   13.72
  -9 -24   1   42.36   18.80
  -9 -24  -1    0.76   15.27
 -24   9   1    4.25   17.77
   9  24  -1   -6.89   15.54
  24  -9   3   13.89   18.00
   9  24   3    3.77   14.59
  -9 -24  -3    8.57   17.36
  24  -9  -3   -5.87   15.29
 -24   9  -3   41.37   17.89
   9  24  -3    9.79   17.44
  -9 -24   3  -15.54   18.98
  -8 -24   0   20.06   14.88
 -24   8   0   32.16   17.71
 -24   8   0   10.30   20.14
   8  24   0    8.86   16.33
  24  -8   0   20.28   15.65
 -24   8   0   16.96   18.48
  -8 -24   0   38.04   14.22
  24  -8   0    8.82   19.53
   8  24   0   -2.64   17.98
  -8 -24   0   40.39   18.65
 -24   8  -2  -16.99   22.87
  -8 -24   2   17.07   13.51
 -24   8  -2   27.16   17.55
  -8 -24  -2   67.76   17.83
  -8 -24   2   -9.08   13.41
   8  24   2   35.60   17.66
  24  -8   2    2.32   17.25
  -8 -24  -2  -27.60   16.93
  24  -8  -2    9.99   19.22
 -24   8  -2   -1.75   17.56
  24  -8  -2   -9.58   14.86
   8  24   2   32.60   19.67
   8  24  -2    7.50   17.67
   8  24  -2   -4.79   14.20
 -24   8   2   21.54   18.65
  -8 -24   2  -19.78   19.88
 -24   8   2   33.14   15.55
  -8 -24   4  -14.51   20.69
   8  24   4    3.81   15.75
  -8 -24  -4    6.12   18.49
   8  24  -4   10.45   17.41
 -24   7   1   -2.20   17.90
   7  24  -1   -5.96   14.48
 -24   7  -1   30.59   21.66
  24  -7  -1    0.58   14.27
  24  -7   1   10.97   15.64
   7  24   1   19.30   16.25
  -7 -24  -1    7.47   15.48
  -7 -24   1   -5.60   13.98
 -24   7   1   -7.83   18.36
 -24   7  -1    0.90   18.42
  -7 -24  -1   16.17   15.47
  -7 -24   1   -6.80   14.26
  24  -7  -1   17.37   19.76
   7  24   1   32.50   17.78
   7  24  -1   -1.69   17.77
  24  -7   1  -14.94   19.30
  -7 -24  -1   -8.06   18.20
  -7 -24   1   -1.72   18.32
 -24   7   1   -6.53   16.81
  -7 -24   3   32.44   14.70
  24  -7   3   33.58   18.26
   7  24   3   48.13   15.42
  -7 -24  -3   11.99   17.89
  24  -7  -3   49.71   15.72
 -24   7  -3   30.37   17.75
   7  24  -3   48.62   18.46
 -24   7   3   38.96   20.01
  -7 -24   3   53.89   20.55
 -24   6   0    7.16   16.76
 -24   6   0   11.82   19.10
  24  -6   0   -7.19   14.27
   6  24   0   14.08   15.33
 -24   6   0   -2.81   19.88
  -6 -24   0   35.11   14.77
  -6 -24   0   13.49   15.60
  24  -6   0   12.87   18.75
   6  24   0   14.62   16.96
  -6 -24   0    0.87   18.39
 -24   6   2   46.51   15.82
 -24   6  -2   29.37   22.17
  24  -6  -2   13.32   13.32
  -6 -24   2   28.51   14.23
  24  -6   2  -18.03   16.40
   6  24   2   19.47   16.97
   6  24   2   15.70   12.74
  -6 -24  -2   -5.84   17.51
  24  -6  -2   11.38   18.98
  24  -6  -2   -2.67   13.69
 -24   6  -2   -6.07   17.68
  -6 -24  -2  -25.62   17.16
   6  24  -2  -10.86   18.27
  24  -6   2   28.22   19.00
 -24   6   2  -18.06   17.40
  -6 -24   2   10.92   12.72
  -6 -24   2   36.76   19.64
   6  24  -2   -4.01   13.55
  -6 -24   4    0.94   21.74
  24  -6   4  -17.73   19.07
   6  24   4    8.40   16.59
  -6 -24  -4  -10.74   19.34
   6  24  -4  -27.81   17.91
 -24   6  -4   37.78   16.17
 -24   5   1   -0.73   17.24
 -24   5  -1   16.00   20.92
 -24   5  -1   15.74   16.55
  24  -5  -1  -12.01   13.82
   5  24  -1   19.17   14.87
  24  -5   1    1.26   15.13
   5  24   1  -14.71   15.93
  -5 -24  -1   -4.73   15.48
 -24   5  -1  -22.29   18.07
   5  24   1  -17.04   11.07
  24  -5  -1   -8.41   18.43
   5  24   1   -2.63   17.72
   5  24  -1   -5.05   17.44
  24  -5   1    0.86   18.22
  -5 -24  -1   -2.19   15.07
  -5 -24  -1   21.50   18.45
  -5 -24   1  -13.86   19.15
 -24   5   1  -20.30   16.86
  -5 -24   1  -10.27   13.74
  -5 -24   3  -11.81   20.17
 -24   5  -3  -48.34   24.88
  -5 -24  -3   18.01   17.09
  -5 -24   3    1.22   14.85
  24  -5   3    2.31   17.11
   5  24   3  -15.46   15.23
   5  24   3   10.40   17.06
  -5 -24  -3   22.11   18.10
  24  -5  -3   -6.13   19.19
 -24   5  -3   13.57   17.03
   5  24  -3   13.32   17.36
  -5 -24  -3   16.25   19.25
 -24   5   3    6.76   18.46
 -24   5  -5   -3.83   15.35
  -5 -24   5   15.07   22.85
 -24   4   0   26.78   16.49
 -24   4   0  -14.21   19.40
  24  -4   0    6.51   13.33
  -4 -24   0    0.66   14.26
   4  24   0    2.01   14.47
 -24   4   0    6.46   18.83
  -4 -24   0    2.61   15.28
  24  -4   0   38.28   18.77
   4  24   0   15.25   18.21
  -4 -24   0    9.63   17.84
 -24   4   2   22.18   15.34
   4  24  -2   12.26   13.15
 -24   4  -2    8.28   21.75
  24  -4  -2   15.36   12.28
  -4 -24   2   12.49   14.68
 -24   4  -2    3.20   16.19
  24  -4   2   10.66   15.46
  -4 -24  -2   -8.66   15.66
 -24   4   2   -2.03   20.77
   4  24   2   -2.10   13.32
  -4 -24  -2   -2.25   17.01
   4  24   2  -17.93   16.70
  24  -4  -2    5.88   18.56
  24  -4  -2   13.69   13.00
 -24   4  -2   32.06   17.62
  -4 -24   2    9.95   12.62
   4  24  -2   22.68   17.89
  24  -4   2  -25.83   18.67
  -4 -24  -2   -4.56   18.06
 -24   4   2   -6.29   17.07
  -4 -24   2   13.28   18.87
  -4 -24   4   -2.91   21.27
  -4 -24   4   -6.12   16.23
  24  -4   4    5.07   18.19
   4  24   4   -9.31   16.87
  -4 -24  -4  -30.11   19.63
   4  24  -4   -6.67   17.83
 -24   4   4  -11.52   20.05
 -24   4  -4   36.05   16.43
 -24   3   1   30.01   17.62
 -24   3  -1   16.77   20.52
 -24   3  -1   -1.53   15.89
  24  -3  -1   -8.36   12.43
  24  -3   1   11.95   13.69
   3  24  -1   -6.70   13.44
  -3 -24  -1   -3.53   16.38
   3  24   1   10.54   15.14
   3  24   1    8.51   11.42
 -24   3  -1   15.91   17.33
  24  -3  -1    4.04   17.98
  -3 -24   1  -19.95   13.89
   3  24   1   -6.03   16.47
  24  -3   1  -17.44   19.23
   3  24  -1   32.89   17.26
  -3 -24  -1   25.05   15.40
  -3 -24   1    1.76   18.43
 -24   3   1   -6.01   16.53
  -3 -24   3  -15.03   20.64
 -24   3  -3  -25.01   22.34
  -3 -24   3    0.66   15.09
  24  -3   3   -3.63   16.09
 -24   3   3    7.42   20.61
  -3 -24  -3   -2.53   16.68
   3  24   3  -17.13   15.77
  -3 -24  -3    8.40   17.81
  24  -3  -3  -32.55   18.84
   3  24   3   18.46   17.00
   3  24   3   -2.85   18.97
   3  24  -3   62.51   18.21
  -3 -24  -3   26.34   18.46
 -24   3   3   15.28   17.03
  24  -3   3  -47.60   18.49
  -3 -24   5  -12.58   22.85
 -24   3  -5   10.93   15.52
   3  24  -5    5.02   17.76
 -24   2   0   19.25   16.61
 -24   2   0   42.74   18.76
  24  -2   0   27.30   12.61
  -2 -24   0   36.78   14.03
 -24   2   0   30.87   18.03
   2  24   0   28.63   14.29
  -2 -24   0   41.50   16.72
  24  -2   0    8.07   18.41
   2  24   0   42.88    9.97
   2  24   0   42.17   17.26
  -2 -24   0   51.28   18.67
 -24   2   2    7.36   15.94
  -2 -24  -2   -3.09   15.62
 -24   2  -2   26.72   22.41
  -2 -24   2   -5.77   15.31
  24  -2  -2   19.18   11.52
 -24   2  -2   27.28   16.15
   2  24  -2   16.81   13.28
  24  -2   2  -12.19   14.19
 -24   2   2   16.07   19.88
  -2 -24  -2    8.54   17.17
   2  24   2  -14.65   13.50
  24  -2  -2   13.67   12.11
  24  -2  -2   37.33   18.07
   2  24   2    8.27   15.39
   2  24   2  -35.46   18.08
 -24   2  -2   -2.61   17.76
   2  24  -2  -17.80   17.79
  24  -2   2   37.56   18.63
  -2 -24  -2   10.04   18.59
 -24   2   2    2.25   16.63
  -2 -24   2  -29.13   20.73
 -24   2  -4   25.47   16.66
  -2 -24   4   -1.01   21.68
 -24   2  -4   -4.71   17.90
  -2 -24   4    0.73   16.65
  24  -2   4   -0.81   17.13
 -24   2   4   41.51   22.96
  24  -2  -4   -5.03   17.46
   2  24   4  -16.67   17.44
   2  24  -4   35.07   18.32
 -24   2   4   -5.03   18.13
 -24   1   1   45.59   16.17
 -24   1   1   -7.81   17.17
 -24   1  -1   30.42   16.26
 -24   1  -1   11.95   19.62
  24  -1  -1   -1.98   10.80
  24  -1   1   -0.50   12.81
 -24   1   1  -17.00   19.70
   1  24  -1    4.66   13.42
  -1 -24  -1    7.40   16.98
   1  24   1   14.03   12.10
  24  -1  -1    5.44   17.42
 -24   1  -1   17.66   17.64
  -1 -24  -1    4.92   15.32
   1  24   1   28.89   14.42
  24  -1   1   25.85   17.94
   1  24  -1   -9.27   17.45
  -1 -24   1   35.12   19.05
  -1 -24   3   27.07   21.13
 -24   1  -3    3.38   22.89
  -1 -24   3   29.76   16.33
  24  -1   3   11.58   14.95
 -24   1   3  -34.55   21.74
  24  -1  -3   -8.83   17.78
  -1 -24  -3  -12.91   19.20
   1  24   3    3.41   16.37
   1  24   3   43.37   19.63
   1  24   3   -7.35   16.43
   1  24  -3  -29.30   17.85
  -1 -24  -3   24.04   18.32
 -24   1   3   33.00   17.21
  24  -1   3   -3.46   17.69
 -24   1  -3   27.57   16.82
  -1 -24   5  -23.89   23.51
 -24   1  -5   19.27   16.45
  -1 -24   5    5.67   18.01
   1  24  -5  -23.50   18.27
 -24   0   0  257.02   23.35
  24   0   0  245.66   18.88
 -24   0   0  236.29   24.71
   0  24   0  294.46   18.55
   0 -24   0  229.47   23.48
  24   0   0  272.03   24.43
   0  24   0  297.31   24.34
   0  24   0  307.55   21.32
   0 -24   0  299.68   25.70
   0 -24   2   -5.64   20.42
 -24   0   2   12.43   15.52
   0 -24   2    6.89   16.27
 -24   0  -2   40.69   21.95
 -24   0  -2    5.34   15.76
  24   0   2   15.68   13.55
   0  24  -2   11.55   12.90
 -24   0   2  -10.80   19.92
   0 -24  -2  -25.72   18.45
   0  24   2   -6.75   13.83
  24   0  -2    0.76   17.41
   0  24   2   -8.73   17.68
   0  24  -2   14.63   17.09
   0  24   2   -3.64   15.30
  24   0   2  -11.42   18.47
   0 -24  -2    0.91   18.56
 -24   0   2  -12.23   16.52
 -24   0  -4   38.20   16.88
   0 -24   4    3.14   22.45
 -24   0  -4   -2.28   17.44
   0 -24   4   11.84   17.77
  24   0   4  -19.97   17.08
  24   0  -4  -22.21   17.65
 -24   0   4   12.92   21.74
   0  24   4    3.26   17.90
   0  24  -4   32.77   18.84
 -24   0   4  -21.50   17.29
   0 -24  -4   17.98   19.26
 -24  -1   1   -1.40   15.39
 -24  -1   1   16.86   17.38
 -24  -1  -1   10.10   15.50
 -24  -1  -1    6.37   19.28
  24   1  -1   11.83    9.72
  24   1   1  -13.33   11.40
   1 -24  -1    5.43   17.56
 -24  -1   1   38.79   19.00
  24   1  -1   11.87   16.89
  -1  24   1   -8.12   13.10
 -24  -1  -1  -30.08   18.12
  -1  24  -1   14.94   12.25
  -1  24   1   22.29   17.15
  24   1   1   -9.36   17.63
  -1  24  -1    6.84   16.35
  -1  24   1    5.87   14.48
   1 -24  -1    1.80   18.69
  -1  24  -1   14.97    8.79
   1 -24   1  -25.88   19.83
   1 -24   3   -1.01   22.09
 -24  -1  -3   -9.30   15.30
   1 -24   3    3.79   16.87
 -24  -1  -3  -34.77   23.44
  24   1   3    4.47   14.00
 -24  -1   3   -4.08   20.57
  24   1  -3  -14.40   17.22
   1 -24  -3    6.17   18.17
  -1  24   3    0.70   16.60
  -1  24   3  -15.32   17.97
  -1  24  -3   -3.55   19.34
   1 -24  -3   14.72   19.09
 -24  -1   3   31.37   16.89
  24   1   3   -0.84   17.96
  -1  24   3   11.26   16.25
 -24  -1  -3   22.23   16.81
 -24  -1  -5   16.78   19.91
   1 -24   5    2.60   18.97
  24   1  -5  -12.13   17.73
  24   1   5    0.88   18.74
 -24  -1   5  -31.18   19.26
  24   2   0  358.97   22.84
 -24  -2   0  302.42   29.52
  24   2   0  433.47   29.00
  -2  24   0  402.31   24.02
 -24  -2   0  379.81   27.30
  -2  24   0  424.44   25.75
  -2  24   2   32.49   14.99
   2 -24   2    7.80   20.98
 -24  -2   2    9.15   15.28
   2 -24   2    5.91   16.88
 -24  -2  -2   22.27   21.63
 -24  -2  -2  -11.27   16.27
  24   2   2    5.15   12.32
   2 -24  -2   26.67   18.39
 -24  -2   2   43.84   19.44
  24   2  -2  -18.57   17.32
  -2  24   2   11.29   15.25
 -24  -2   2    5.82    9.48
  -2  24  -2   29.93   12.48
  -2  24   2   39.98   18.68
  -2  24  -2    7.93   18.33
  24   2   2  -33.37   17.98
 -24  -2  -2   -5.82   16.80
   2 -24  -2   -9.14   19.16
 -24  -2   2  -19.96   15.86
   2 -24   4    1.09   22.95
 -24  -2  -4   -6.66   17.33
 -24  -2  -4    7.37   17.19
   2 -24   4  -57.18   19.88
  24   2   4  -10.36   16.06
  24   2  -4   17.97   16.48
 -24  -2   4   35.44   21.20
  -2  24   4   21.13   18.36
  -2  24   4    2.84   19.71
  -2  24  -4  -12.91   18.97
 -24  -2   4   -0.75   17.19
   2 -24  -4  -20.59   19.98
   3 -24   1   -3.82   20.38
 -24  -3   1   12.77   15.21
  -3  24   1   20.74   14.33
 -24  -3   1  -22.54   17.13
 -24  -3  -1   -3.64   20.24
 -24  -3  -1   -0.70   15.38
   3 -24   1    4.46   11.04
  24   3   1   17.30   10.69
   3 -24  -1   23.50   18.22
 -24  -3   1   21.78   18.63
  24   3  -1    7.75   16.56
  -3  24   1    1.56   13.76
  -3  24   1   -0.86   16.83
  24   3   1   25.00   17.24
  -3  24  -1   -4.36   17.91
   3 -24  -1   29.16   18.74
  -3  24  -1   16.13    9.94
  -3  24  -1   24.47   12.47
 -24  -3  -3  -13.50   17.55
   3 -24   3  -26.37   22.87
  -3  24   3    1.61   16.31
 -24  -3  -3    2.37   14.93
   3 -24   3  -39.65   19.05
 -24  -3  -3   23.54   22.49
  24   3   3    4.27   14.04
  24   3  -3   19.98   16.74
   3 -24  -3    2.72   19.05
 -24  -3   3    6.88   19.48
  -3  24   3   28.23   16.36
  -3  24   3  -16.93   18.52
  -3  24  -3  -25.70   18.90
   3 -24  -3   -3.67   19.33
 -24  -3   3  -25.79   16.33
  24   3   3   13.30   17.54
 -24  -3  -5   51.38   20.57
  24   3  -5   -7.63   16.84
  24   3   5  -18.87   18.35
 -24  -3   5    8.27   20.47
 -24  -3   5   -3.17   18.45
 -24  -4   0  262.76   21.71
  -4  24   0  239.56   19.74
 -24  -4   0  242.53   24.92
   4 -24   0  228.71   18.79
  24   4   0  223.39   22.85
 -24  -4   0  218.81   24.50
  -4  24   0  260.93   19.16
 -24  -4   2    0.66   14.69
   4 -24   2   33.60   23.12
 -24  -4   2    0.58   15.36
   4 -24   2    0.79   17.45
  -4  24   2   -3.67   15.09
 -24  -4  -2  -12.22   21.36
  24   4   2   17.87   11.93
   4 -24  -2    1.73   19.48
  24   4  -2  -10.75   16.47
  -4  24   2   -1.26   15.39
 -24  -4   2   18.58   18.77
 -24  -4   2  -14.52   10.25
  -4  24   2  -23.41   17.90
  -4  24  -2   -9.06   18.49
  24   4   2  -20.23   17.43
  -4  24  -2   12.66   11.83
   4 -24  -2  -16.53   19.02
 -24  -4  -2   10.96   17.36
 -24  -4  -4   -0.72   16.99
 -24  -4  -4   -0.86   17.27
   4 -24   4    8.04   19.36
  24   4   4  -17.32   16.61
  24   4  -4   17.63   15.85
  -4  24   4    5.21   18.57
 -24  -4   4   15.96   20.40
  -4  24   4    1.85   18.54
 -24  -4   4   15.04   16.81
   4 -24  -4    9.26   18.84
 -24  -5   1  -12.21   14.91
  -5  24  -1   10.56   11.77
 -24  -5   1    5.00   16.85
 -24  -5  -1   24.12   15.55
  -5  24   1    7.30   14.08
   5 -24   1  -13.76   12.30
   5 -24  -1   55.83   19.27
 -24  -5   1    4.66   12.20
  24   5  -1    6.66   16.43
  -5  24   1    0.56   14.06
 -24  -5   1    6.30   18.28
  -5  24   1    4.32   16.96
  24   5   1   16.17   17.07
  -5  24  -1   -4.47   17.21
 -24  -5  -1   13.49   17.48
  -5  24  -1   10.27   11.16
   5 -24  -1   -7.44   19.47
   5 -24   3    9.91   23.03
 -24  -5  -3  -25.04   18.30
 -24  -5  -3  -16.47   14.67
   5 -24   3   -0.86   18.47
  -5  24   3   29.69   17.09
  24   5   3   10.04   13.87
  24   5  -3   -9.92   15.78
   5 -24  -3   12.17   19.39
  -5  24   3   -9.82   17.10
 -24  -5   3   -4.75   19.21
  -5  24   3  -15.91   17.40
  -5  24  -3    0.95   19.87
   5 -24  -3   15.53   19.25
  24   5   3   16.33   17.85
 -24  -5   3  -13.88   15.90
 -24  -5  -5    5.13   19.36
  24   5   5    2.54   17.76
 -24  -5   5  -21.58   19.93
   6 -24   0   29.09   21.39
 -24  -6   0   61.55   15.64
   6 -24   0   63.30   13.77
  -6  24   0   53.61   13.84
 -24  -6   0   32.40   13.60
  24   6   0   64.35   16.99
  -6  24   0   61.13   19.17
  -6  24   0   61.39   13.67
 -24  -6   0   41.10   17.28
 -24  -6  -2   14.68   17.38
 -24  -6   2  -16.34   15.47
   6 -24   2   25.32   22.76
 -24  -6  -2    3.43   12.07
  -6  24  -2    1.92   11.39
   6 -24   2    9.20   18.80
 -24  -6   2    7.80   15.44
  -6  24   2    3.05   15.71
   6 -24   2   -2.75   12.79
   6 -24  -2   27.83   19.05
  24   6  -2    7.55   15.03
  -6  24   2    2.02   16.16
 -24  -6   2   11.82   11.13
 -24  -6   2  -21.92   18.98
  -6  24   2   19.27   18.29
  -6  24  -2    5.61   18.20
  24   6   2   44.11   17.02
   6 -24  -2  -10.23   19.58
 -24  -6  -4  -13.40   16.84
  24   6  -4  -10.60   15.64
  24   6   4   12.12   15.67
  -6  24   4   16.93   19.13
 -24  -6   4   20.09   18.90
  -6  24   4   20.92   18.30
 -24  -6   4   -5.40   16.53
   6 -24  -4    2.75   19.17
 -24  -7   1   -0.62   14.39
   7 -24   1  -22.39   19.35
   7 -24  -1    8.46   14.13
   7 -24   1   30.18   13.76
  -7  24  -1   10.33   11.77
   7 -24  -1   34.39   19.42
  -7  24   1    4.88   14.35
 -24  -7  -1    2.17   15.76
  24   7  -1  -21.30   15.49
 -24  -7   1   13.21   12.91
  -7  24   1   14.13   14.75
  -7  24   1    7.95   18.13
  24   7   1   -9.22   16.33
  -7  24  -1    8.60   11.96
   7 -24  -1  -10.49   21.10
 -24  -7   3   18.71   15.05
 -24  -7  -3    7.69   14.20
   7 -24   3   10.95   19.82
  24   7  -3   10.53   15.20
  -7  24   3   30.10   18.08
 -24  -7  -3   11.59   19.41
 -24  -7   3  -17.61   18.92
  -7  24   3   12.42   18.67
   7 -24  -3   13.94   20.01
  24   7   3    1.62   17.13
 -24  -7  -5  -13.48   19.43
 -24  -7   5   14.00   17.78
   8 -24   0   48.37   21.84
 -24  -8   0   30.01   14.72
   8 -24   0   46.09   14.67
 -24  -8   0   37.38   14.23
  -8  24   0   24.12   13.70
  24   8   0   39.02   16.31
  -8  24   0    4.55   18.50
  -8  24   0   26.94   14.32
 -24  -8   0   42.55   18.28
   8 -24   2    9.96   22.68
 -24  -8   2   11.82   14.59
  -8  24  -2   -0.46   11.46
 -24  -8  -2   15.01   17.51
   8 -24   2   24.80   19.40
   8 -24  -2   20.09   15.38
  24   8   2   -4.87   19.45
  -8  24  -2  -13.28   11.89
   8 -24   2   -3.78   14.15
   8 -24  -2    7.44   20.02
  24   8  -2    4.11   14.69
 -24  -8  -2   -1.70   17.15
  -8  24   2  -20.00   16.57
  -8  24   2   -7.17   16.84
 -24  -8   2   -4.57   11.33
  -8  24   2   -2.65   18.14
  -8  24  -2   42.59   20.21
  24   8   2   16.47   16.66
   8 -24  -2  -10.43   20.83
  -8  24   4    3.62   18.89
 -24  -8   4   18.55   18.86
   8 -24  -4   14.84   19.53
   9 -24  -1  -13.81   21.15
   9 -24   1    5.42   22.40
   9 -24   1   -3.52   19.52
 -24  -9   1    4.09   13.93
  24   9   1  -37.22   19.30
   9 -24  -1    6.61   14.83
   9 -24   1   28.42   15.03
  24   9  -1   13.51   14.76
 -24  -9  -1   -9.62   16.04
 -24  -9   1   36.93   13.76
  -9  24   1   21.26   16.10
  -9  24   1  -18.98   19.10
  -9  24  -1    2.30   12.94
  24   9   1    2.07   15.68
  -9  24   1   -0.74   15.44
 -24  -9   1  -29.67   18.37
  -9  24  -1   -6.51   12.70
  -9  24   3    6.68   18.70
  -9  24   3   22.24   18.34
  24   9   3  -18.52   17.39
   9 -24  -3   -2.83   19.87
 -24 -10   0   -4.31   17.88
  10 -24   0  -29.56   23.56
 -10  24   0   -4.79   14.65
  10 -24   0  -22.08   15.44
 -24 -10   0   -0.67   14.56
  24  10   0    9.28   15.06
 -10  24   0   22.51   20.02
 -10  24   0   26.46   14.92
  10 -24  -2    2.93   20.91
 -10  24  -2   -8.45   12.54
 -24 -10   2  -17.09   13.53
  10 -24   2   -3.75   20.04
  10 -24  -2   21.51   16.57
  10 -24   2   -1.84   15.80
  24  10  -2  -24.08   14.36
 -24 -10  -2    3.45   17.86
 -10  24   2   -5.34   16.59
 -10  24   2    3.59   18.67
 -10  24  -2   -4.67   11.96
  24  10   2  -20.73   17.14
 -24 -10   2   -6.80   17.56
 -10  24   2   -3.40   17.25
 -10  24   4  -16.20   18.91
  10 -24  -4  -30.93   20.19
 -24 -11   1  -25.70   17.69
  11 -24  -1   -2.06   21.53
 -24 -11  -1   25.78   17.64
  11 -24   1   62.78   20.40
 -11  24  -1    9.99   13.86
 -11  24   1    9.60   16.66
 -24 -11   1    4.39   13.84
  11 -24  -1  -30.24   16.75
  11 -24   1  -35.64   16.50
  24  11  -1   -4.39   14.11
 -24 -11  -1   20.05   15.63
 -24 -11   1    5.02   14.52
 -11  24   1   13.58   16.78
 -11  24   1   -3.71   18.61
  24  11   1    3.35   15.97
 -11  24  -1   12.18   13.92
  11 -24  -3   -0.97   21.02
 -11  24   3   31.69   19.94
 -11  24   3  -25.25   19.40
 -24 -11   3   10.22   17.20
  24  11   3   33.64   17.76
  12 -24   0   -4.44   23.44
 -24 -12   0   29.03   17.77
  24  12   0  -38.50   20.23
  12 -24   0   -0.72   16.60
 -12  24   0    3.71   15.25
 -24 -12   0  -16.13   15.69
  24  12   0   14.09   15.09
 -12  24   0   -1.38   15.30
 -24 -12   2   41.04   18.04
  12 -24  -2   21.39   22.44
 -12  24  -2  -13.80   13.86
 -12  24  -2  -16.28   12.74
  12 -24  -2  -11.20   17.22
  12 -24   2   29.46   17.61
 -24 -12  -2  -24.08   17.95
 -12  24   2   -0.81   18.18
 -12  24   2   -4.59   19.61
  24  12   2    7.34   16.38
  12 -24  -4    2.88   20.24
 -24 -12   4   53.16   17.53
 -13  24  -1  -30.44   15.59
  13 -24  -1  -21.92   23.34
 -24 -13   1    3.48   17.43
  13 -24  -1   -0.79   17.13
  13 -24   1  -13.27   17.51
 -13  24   1   45.42   18.16
 -13  24  -1   11.60   15.06
 -24 -13  -1  -27.24   16.50
 -24 -13   1   24.51   15.52
 -13  24   1   -6.90   16.78
  24  13   1    9.77   16.29
 -24 -13   3    4.27   18.04
  13 -24  -3   -5.04   21.35
 -13  24   3   -5.46   19.23
  24  13   3    1.61   17.61
  14 -24   0   14.22   17.92
 -24 -14   0   15.71   16.04
 -14  24   0    7.49   16.62
 -14  24   0   20.11   16.29
  14 -24  -2   21.42   23.34
 -14  24  -2   -9.42   14.54
 -24 -14   2    9.53   17.53
  14 -24   2    6.00   18.14
 -14  24   2   12.13   19.53
  24  14   2   10.95   17.17
 -15  24  -1   -0.74   16.43
 -15  24  -1   26.67   16.01
  15 -24  -1  -11.00   18.27
  15 -24   1    2.42   18.74
 -24 -15  -1   12.55   17.01
 -24 -15   1  -11.84   16.43
 -15  24   1   -8.25   18.00
 -24 -15   3   -6.84   17.71
  24  15   3    2.43   18.07
 -16  24   0   30.17   18.45
 -24 -16   0   40.22   17.67
 -16  24   0   11.36   17.18
 -16  24  -2   -5.21   15.85
  16 -24   2   -0.82   19.43
 -17  24  -1   -2.43   17.02
  17 -24   1   -1.75   19.46
 -24 -17   1  -22.30   18.41
 -17  24  -1   -7.98   16.74
 -24 -18   0   17.33   18.04
 -16 -25   1  -20.48   15.96
  25 -16  -1   23.62   20.96
  16  25  -1   12.79   18.76
 -25  16   1  -15.60   20.37
 -25  15   0   29.64   21.40
 -15 -25   2    9.61   14.96
  15  25  -2   29.43   18.96
 -15 -25   2   -2.74   19.50
  25 -14  -1  -12.37   18.50
 -14 -25   1   -3.64   15.21
  14  25  -1    4.33   17.82
 -14 -25   1  -45.67   19.26
 -25  14   1   -6.09   19.69
 -25  14  -3   -1.80   17.39
  25 -13   0  -22.12   18.80
 -13 -25   0    6.15   16.31
  13  25   0    7.69   17.94
 -25  13   0   18.04   21.25
 -25  13  -2    1.89   19.67
 -13 -25   2   13.78   14.77
  25 -13  -2    9.59   17.85
  13  25  -2   -6.26   18.29
 -13 -25   2    0.91   19.43
 -25  12  -1    6.17   21.91
  25 -12  -1   -9.10   17.69
  25 -12   1   23.51   18.64
 -25  12  -1   33.94   20.50
 -12 -25   1  -13.99   14.98
 -12 -25  -1   40.08   16.64
  12  25  -1   42.56   18.51
 -12 -25   1   33.70   19.31
 -25  12   1   21.59   19.78
  25 -12  -3   13.58   17.53
 -25  12  -3   -5.36   17.67
  12  25  -3  -22.24   18.15
 -12 -25   3  -25.12   19.96
 -25  11   0  -27.54   21.26
  25 -11   0    1.52   17.15
  11  25   0   11.43   18.52
 -11 -25   0   17.18   15.86
 -11 -25   0   13.91   18.83
  11  25   0   13.88   17.14
  25 -11   2   27.99   19.43
 -11 -25  -2   15.99   16.94
 -25  11  -2   -4.65   19.63
  25 -11  -2    1.44   17.07
  11  25  -2    3.54   17.88
  11  25  -2    5.06   15.89
 -11 -25   2   21.37   14.79
 -11 -25   2    9.85   19.47
 -25  10  -1   50.45   22.33
  10  25   1   -2.57   17.90
  25 -10  -1    5.54   15.98
  25 -10   1  -10.97   16.97
 -25  10  -1   11.52   19.16
 -10 -25  -1    1.27   15.43
  10  25  -1  -11.80   17.99
 -10 -25   1   15.58   14.71
 -10 -25  -1    8.01   17.02
 -10 -25   1   14.54   19.11
  10  25  -1   10.35   15.82
 -25  10   1  -16.71   18.41
 -10 -25  -3  -11.12   18.11
 -25  10  -3    2.65   17.81
  10  25  -3   17.96   18.05
 -10 -25   3   22.52   20.19
  -9 -25   0   -4.38   15.56
 -25   9   0  -23.26   21.15
   9  25   0  -31.38   17.02
  25  -9   0    0.70   16.07
 -25   9   0   -5.93   19.25
  -9 -25   0   -7.04   14.48
   9  25   0    5.57   18.73
  -9 -25   0   -4.61   19.14
 -25   9  -2   15.41   23.14
  -9 -25   2   46.01   14.61
  25  -9  -2   27.60   15.50
  25  -9   2    4.09   17.81
  -9 -25  -2   16.64   17.13
 -25   9  -2   -8.24   18.56
  25  -9  -2   -1.93   15.53
   9  25  -2   19.29   18.68
  -9 -25   2   19.81   19.27
 -25   9   2  -15.11   16.73
  -9 -25   4   17.84   21.56
 -25   8   1  -18.61   19.09
   8  25  -1   -0.71   15.40
 -25   8  -1   17.92   21.48
  -8 -25   1    4.17   13.54
   8  25   1  -15.61   17.09
  25  -8  -1   28.98   14.48
  -8 -25   1  -17.85   14.75
  -8 -25  -1    0.79   16.33
  25  -8   1   13.15   16.80
 -25   8   1   36.96   19.93
 -25   8  -1  -12.32   19.86
  -8 -25  -1   13.95   15.80
  -8 -25   1    6.28   14.32
  25  -8  -1   11.95   19.17
   8  25   1   -5.76   18.96
   8  25  -1  -10.70   18.50
  -8 -25  -1    1.88   18.47
  -8 -25   1  -21.58   18.99
 -25   8   1   14.73   18.63
  25  -8   3  -13.79   18.72
  -8 -25  -3   15.52   17.99
 -25   8  -3  -39.71   18.75
   8  25  -3    5.17   18.01
  -8 -25   3   29.40   20.28
 -25   7   0    0.84   17.25
 -25   7   0    5.33   20.12
   7  25   0  -11.30   16.69
  25  -7   0   -2.58   15.01
  -7 -25   0   -8.57   15.24
 -25   7   0   -0.98   19.05
  -7 -25   0   -3.74   15.03
  25  -7   0   27.23   19.48
   7  25   0  -12.69   18.59
  -7 -25   0   45.53   19.40
 -25   7  -2   12.05   23.10
  25  -7  -2   11.58   14.30
  -7 -25   2    4.94   14.04
  25  -7   2   22.94   17.02
   7  25   2   18.96   17.33
  -7 -25  -2    8.24   17.07
  -7 -25  -2    5.05   16.95
  25  -7  -2   -2.88   14.60
 -25   7  -2  -16.35   18.20
   7  25  -2   11.40   18.78
  -7 -25   2   32.71   13.57
 -25   7   2   27.01   18.06
   7  25  -2   16.05   14.57
  -7 -25   2   18.94   19.83
 -25   7   2  -23.69   16.57
  -7 -25   4   -9.63   21.66
   7  25   4    7.77   16.73
   7  25  -4    5.96   18.13
 -25   7  -4  -13.64   16.75
 -25   6   1   37.88   18.34
 -25   6  -1   -9.81   21.25
 -25   6  -1  -13.33   17.28
   6  25  -1   21.83   15.28
  25  -6  -1   18.18   13.98
  25  -6   1  -14.88   15.28
   6  25   1  -18.08   16.96
 -25   6   1   -6.11   19.29
  -6 -25  -1   18.63   16.05
 -25   6  -1  -14.96   18.62
  -6 -25   1   17.95   15.39
  25  -6  -1   19.61   19.39
   6  25   1    5.59   19.03
  -6 -25  -1  -16.98   16.59
  25  -6   1  -10.86   19.03
   6  25  -1   -2.64   18.23
  -6 -25   1  -14.78   13.49
  -6 -25  -1   11.13   19.03
  -6 -25   1  -31.69   19.75
 -25   6   1   41.47   17.33
  -6 -25   3  -32.02   20.56
  -6 -25   3    3.04   15.35
  25  -6   3  -12.19   17.50
   6  25   3  -27.26   15.09
  -6 -25  -3   14.24   18.20
 -25   6  -3   -4.43   18.06
   6  25  -3  -11.32   18.44
 -25   5   0   13.00   17.04
  -5 -25   0    9.08   14.79
 -25   5   0  -12.24   20.12
  25  -5   0  -11.17   14.14
   5  25   0   15.85   15.31
 -25   5   0    0.97   19.73
  -5 -25   0   22.50   15.82
  25  -5   0   -9.72   19.69
   5  25   0  -23.20   17.94
  -5 -25   0    4.59   18.77
 -25   5   2   38.96   16.67
   5  25  -2    5.36   14.29
 -25   5  -2    8.67   22.93
  -5 -25  -2   18.19   16.92
  25  -5  -2   41.53   13.16
  -5 -25   2    5.96   15.06
 -25   5  -2   16.87   16.91
  25  -5   2   15.61   16.03
 -25   5   2  -20.22   21.97
   5  25   2    9.90   17.16
  -5 -25  -2   20.82   17.52
  25  -5  -2  -22.33   19.80
 -25   5  -2   -4.54   18.57
   5  25  -2    3.52   17.79
  25  -5   2   49.91   20.00
  -5 -25   2    6.72   13.02
 -25   5   2   -0.84   18.49
  -5 -25   2   52.53   20.65
  -5 -25   4   14.01   22.20
  25  -5   4   13.27   18.82
   5  25   4   28.15   17.49
   5  25  -4   37.00   18.83
 -25   5  -4    1.63   16.09
 -25   4   1   -8.79   17.39
 -25   4   1   -0.75   18.85
 -25   4  -1    0.97   20.82
 -25   4  -1   20.20   16.98
  25  -4  -1   19.91   13.17
   4  25  -1   11.18   14.75
  25  -4   1   24.58   14.24
   4  25   1  -12.68   15.75
  -4 -25  -1    9.81   15.78
  -4 -25  -1    4.32   17.22
 -25   4  -1   -7.45   18.77
  25  -4  -1   47.30   19.29
   4  25   1    2.73   19.62
  25  -4   1   34.40   19.31
   4  25  -1   28.13   17.98
  -4 -25  -1   10.23   18.75
  -4 -25   1    7.34   19.63
  -4 -25   1    6.85   13.48
  -4 -25   3   10.59   20.43
  -4 -25   3  -22.36   16.26
  25  -4   3    8.43   17.23
   4  25   3    8.61   15.23
  -4 -25  -3   34.40   18.70
  25  -4  -3  -15.96   19.12
   4  25  -3   -9.62   17.96
 -25   4   3    3.41   18.00
  -4 -25   5    8.55   24.09
 -25   4  -5  -14.55   16.48
 -25   3   0  -19.65   17.05
 -25   3   0   -0.86   19.72
  25  -3   0  -12.14   13.48
   3  25   0   10.23   14.57
  -3 -25   0    4.09   14.55
 -25   3   0  -19.10   18.69
  -3 -25   0   -5.62   16.27
  25  -3   0    8.56   18.79
   3  25   0  -19.51   17.76
  -3 -25   0   37.01   20.32
 -25   3   2   49.15   16.65
 -25   3  -2   24.59   22.34
   3  25  -2   30.84   14.13
  -3 -25   2   31.47   15.56
 -25   3  -2   20.52   17.13
  25  -3   2   51.55   15.44
  -3 -25  -2   34.04   17.13
 -25   3   2   27.47   21.45
  -3 -25  -2   53.16   18.50
   3  25   2   18.97   13.27
  25  -3  -2   39.80   19.46
   3  25   2   36.38   16.31
   3  25   2   14.09   18.80
 -25   3  -2   28.19   18.43
   3  25  -2   -7.92   18.94
  25  -3   2   16.83   18.58
  -3 -25  -2   15.32   19.33
 -25   3   2   27.92   17.86
  -3 -25   2   -9.44   20.80
  -3 -25   4    4.12   22.03
  -3 -25   4   -3.64   16.70
  25  -3   4    3.37   17.80
   3  25   4    3.20   16.90
   3  25  -4    1.76   18.03
 -25   3  -4  -22.22   16.56
 -25   2   1   47.71   17.23
 -25   2   1   62.52   18.98
 -25   2  -1   80.67   22.39
 -25   2  -1   42.43   17.50
  25  -2   1   50.61   13.96
   2  25  -1   85.37   15.63
  -2 -25  -1   55.66   17.92
   2  25   1   36.39   16.40
  25  -2  -1   65.40   19.21
 -25   2  -1   75.86   19.72
  -2 -25  -1   80.65   16.79
  25  -2   1   79.52   20.31
   2  25  -1   37.09   18.21
  -2 -25   1  111.56   21.52
  -2 -25   3    1.99   20.75
  -2 -25   3   18.38   16.96
  25  -2   3   23.67   16.50
 -25   2   3  -33.05   22.26
  -2 -25  -3   14.08   19.11
  25  -2  -3  -17.73   18.56
   2  25   3   28.78   15.65
   2  25  -3    9.80   18.27
 -25   2  -3   18.51   17.56
 -25   2   3   -0.82   18.21
 -25   1   0    7.57   16.06
 -25   1   0   21.36   19.64
  25  -1   0  -16.82   12.41
  -1 -25   0   17.82   17.70
 -25   1   0   28.44   18.87
   1  25   0   -9.74   14.34
  25  -1   0   13.26   18.28
   1  25   0  -27.51   18.67
  -1 -25   0   14.05   19.62
  -1 -25   2  -13.61   21.72
 -25   1   2   -1.77   15.79
 -25   1  -2   -6.35   22.02
  -1 -25   2    2.76   16.07
 -25   1  -2   13.65   16.51
  25  -1   2   -5.39   13.63
   1  25  -2    9.03   13.49
 -25   1   2    9.34   20.85
  -1 -25  -2    9.03   18.17
  25  -1  -2   28.27   18.24
   1  25   2    3.93   14.01
   1  25   2   22.02   17.43
   1  25   2   16.83   15.77
 -25   1  -2    3.66   17.96
   1  25  -2   38.36   19.45
  25  -1   2   16.34   18.49
  -1 -25  -2  -14.41   19.28
 -25   1   2   36.04   17.26
 -25   1  -4   -2.52   17.42
  -1 -25   4  -19.36   22.93
 -25   1  -4   -2.34   17.97
  -1 -25   4   -3.14   18.11
  25  -1   4    3.21   17.35
  25  -1  -4    2.53   18.03
   1  25   4   -8.19   17.51
   1  25  -4   -8.16   18.40
 -25   1   4    7.61   18.01
 -25   0   1   28.26   16.30
 -25   0   1   19.18   18.13
 -25   0  -1   18.05   20.37
 -25   0  -1   28.99   15.98
  25   0   1   40.01   12.85
   0 -25  -1    8.66   18.22
 -25   0   1  -12.68   19.86
   0  25  -1   46.54   14.03
  25   0  -1   23.80   18.10
   0  25   1    3.30   12.89
 -25   0  -1    7.40   19.18
  25   0   1   28.27   18.61
   0  25   1   13.06   14.42
   0  25  -1   -3.54   17.38
   0 -25  -1   -1.89   19.57
   0 -25   1  -17.11   21.15
   0 -25   3  -38.36   22.71
 -25   0  -3   23.27   22.80
   0 -25   3    9.08   16.99
  25   0   3   -4.03   14.75
 -25   0   3  -23.73   21.61
  25   0  -3   15.39   17.78
   0 -25  -3  -28.03   19.52
   0  25   3    0.70   16.03
   0  25  -3  -12.77   18.62
   0 -25  -3  -18.38   19.32
 -25   0   3   -3.11   17.31
 -25   0  -3    1.71   17.25
   0 -25   5   -2.58   18.86
 -25  -1   0    1.47   16.20
 -25  -1   0   17.77   19.16
  25   1   0   39.98   18.88
  -1  25   0   16.86   17.79
  -1  25   0    8.64   11.37
  -1  25   0   21.78   13.90
   1 -25   2   -2.99   21.23
 -25  -1   2    1.79   15.71
   1 -25   2   -5.93   16.74
 -25  -1  -2   -3.15   21.87
 -25  -1  -2  -13.40   16.34
  25   1   2    0.55   13.01
  -1  25  -2   13.14   13.49
   1 -25  -2  -22.10   18.83
 -25  -1   2   -4.04   20.21
  25   1  -2   -7.66   17.62
  -1  25   2  -11.23   14.53
  -1  25   2  -11.79   18.54
  -1  25  -2    0.91   18.25
  25   1   2  -12.60   18.47
 -25  -1  -2   -5.18   17.23
  -1  25   2   40.45   15.78
   1 -25  -2   16.14   18.86
 -25  -1   2   21.29   16.87
 -25  -1  -4  -42.26   18.18
   1 -25   4  -25.94   19.37
  25   1   4   -9.18   16.48
  25   1  -4   12.74   17.19
  -1  25   4   -6.79   18.16
 -25  -1   4   11.23   18.61
 -25  -2   1  -10.75   16.58
 -25  -2   1    7.38   17.35
 -25  -2  -1   13.27   19.67
 -25  -2  -1  -11.18   16.27
   2 -25  -1   14.03   18.35
 -25  -2   1  -14.37   19.20
  25   2  -1   31.03   17.96
  -2  25   1    6.67   13.24
  -2  25   1   12.56   17.33
 -25  -2  -1   18.59   18.94
  25   2   1   12.85   17.72
  -2  25  -1    9.11   13.04
  -2  25  -1  -21.64   18.88
   2 -25  -1   34.30   20.07
  -2  25   1   -2.02   13.67
   2 -25   1   28.37   21.58
 -25  -2  -3  -11.30   16.99
   2 -25   3   23.55   22.87
 -25  -2  -3  -11.03   15.37
   2 -25   3  -26.67   18.07
 -25  -2  -3   -9.27   23.03
  25   2   3   -8.25   14.12
  25   2  -3  -12.99   17.68
 -25  -2   3   -6.27   20.69
  -2  25   3   19.53   16.59
  -2  25   3    7.47   19.19
  -2  25  -3   14.12   19.13
   2 -25  -3   29.93   20.49
 -25  -2   3    5.18   16.04
  25   2  -5    4.05   17.86
 -25  -2   5    1.68   18.84
  -3  25   0   -1.82   13.39
 -25  -3   0  -10.70   15.83
 -25  -3   0   22.03   19.13
  25   3   0  -16.06   18.10
  -3  25   0   11.19   12.06
 -25  -3   2   23.33   16.24
   3 -25   2   41.44   22.67
  -3  25   2  -20.24   15.68
   3 -25   2   30.06   18.27
 -25  -3  -2   11.57   22.00
  25   3   2    8.64   12.28
   3 -25  -2   -4.40   18.98
  25   3  -2   -7.23   17.00
 -25  -3   2   19.71   19.88
  -3  25   2   -1.25   14.94
 -25  -3   2    6.27   10.06
  -3  25  -2  -11.55   12.58
  -3  25   2   18.13   18.39
  -3  25  -2   20.52   19.23
  25   3   2    5.74   17.95
   3 -25  -2   -0.95   19.81
 -25  -3  -2    0.88   17.75
 -25  -3  -4  -13.87   17.90
   3 -25   4   23.13   19.42
  25   3   4   20.02   16.05
  25   3  -4    6.76   17.39
  -3  25   4   20.04   19.26
 -25  -3   4    6.38   21.29
 -25  -3   4   16.81   18.05
  -4  25  -1    0.55   12.37
   4 -25   1   41.47   21.81
 -25  -4   1   21.32   15.64
  -4  25   1  -13.55   14.17
 -25  -4   1   21.46   17.59
 -25  -4  -1   -5.72   20.11
 -25  -4  -1  -36.42   16.62
   4 -25   1   25.53   11.93
   4 -25  -1   12.91   18.97
 -25  -4   1    0.53   12.18
  25   4  -1    5.02   16.85
 -25  -4   1   23.68   19.05
  -4  25   1    5.00   14.11
  -4  25   1   45.01   18.55
  25   4   1   21.84   18.05
  -4  25  -1   34.12   18.55
 -25  -4  -1   26.24   17.64
   4 -25  -1   31.97   20.70
 -25  -4  -3   -2.33   15.04
   4 -25   3    4.30   18.93
  25   4   3   28.15   14.43
  25   4  -3   -5.03   16.66
  -4  25   3  -17.33   17.82
 -25  -4   3   -4.05   20.54
  -4  25   3  -19.43   19.13
  25   4   3   18.00   18.25
   4 -25  -3   -3.85   20.36
 -25  -4   3  -14.87   16.16
  25   4   5    5.18   17.96
   5 -25   0   18.89   21.01
 -25  -5   0   -2.76   15.21
  -5  25   0    9.79   12.91
 -25  -5   0    7.70   18.67
   5 -25   0   -7.08   12.88
 -25  -5   0  -26.93   14.03
  25   5   0    9.53   17.27
  -5  25   0    1.00   12.90
 -25  -5  -2    8.90   17.98
   5 -25   2   17.30   22.78
 -25  -5   2    7.45   15.46
   5 -25   2  -24.39   18.99
  -5  25   2  -19.97   16.53
   5 -25  -2  -24.70   20.25
  25   5  -2   15.62   16.11
  -5  25   2   -3.33   15.87
 -25  -5   2   31.89   19.75
  -5  25   2  -13.71   18.12
  -5  25  -2   11.53   18.30
  25   5   2  -12.85   17.18
   5 -25  -2   24.95   19.94
  -5  25  -2   -3.04   12.19
 -25  -5  -4   -2.13   17.24
  25   5  -4   27.63   16.13
  -5  25   4   30.32   20.15
 -25  -5   4    8.18   20.36
 -25  -5   4  -19.53   17.60
 -25  -6   1  -23.15   15.57
   6 -25   1    4.20   18.48
 -25  -6   1  -27.94   17.84
  -6  25  -1   20.51   12.72
 -25  -6  -1    4.28   15.25
  -6  25   1    6.32   15.04
   6 -25   1   12.74   13.08
   6 -25  -1   48.45   20.11
 -25  -6  -1    1.48   15.45
  25   6  -1   14.21   15.84
 -25  -6   1  -13.21   13.08
  -6  25   1   -0.60   14.31
 -25  -6   1    7.55   18.76
  -6  25   1  -35.54   18.77
  25   6   1    9.84   16.80
  -6  25  -1   83.38   19.94
  -6  25  -1   32.89   11.66
   6 -25  -1   28.69   20.74
 -25  -6   3  -10.76   16.22
   6 -25   3   12.79   19.48
  25   6  -3   10.00   15.85
  -6  25   3    4.73   17.77
 -25  -6   3    9.85   19.64
  -6  25   3  -14.75   18.92
  25   6   3   27.82   17.98
   6 -25  -3    9.62   19.81
   7 -25   0   27.76   21.04
 -25  -7   0  -11.34   14.65
   7 -25   0  -17.03   14.11
  -7  25   0  -10.83   13.46
 -25  -7   0    1.92   14.05
  25   7   0  -17.51   16.83
  -7  25   0    3.75   18.00
  -7  25   0  -13.94   13.64
 -25  -7   0   -7.06   17.42
 -25  -7   2    2.58   15.34
   7 -25   2   18.71   19.72
  -7  25  -2  -21.23   12.10
  -7  25   2  -16.06   16.07
  25   7  -2   12.09   15.77
 -25  -7  -2    1.74   17.77
  -7  25   2   18.46   16.38
 -25  -7   2   -7.64   19.55
  -7  25   2   31.27   19.64
  25   7   2   10.27   18.10
   7 -25  -2   49.80   21.59
 -25  -7   4  -19.74   19.58
   8 -25  -1    3.05   20.85
   8 -25   1  -21.19   19.84
 -25  -8   1   18.29   14.81
   8 -25  -1  -11.65   15.06
   8 -25   1    3.93   14.64
  -8  25  -1    1.15   13.29
   8 -25  -1  -23.34   19.89
  -8  25   1    5.17   15.06
 -25  -8  -1   15.02   15.81
  25   8  -1   15.27   15.87
 -25  -8   1  -13.52   13.63
  -8  25   1   19.60   15.91
  -8  25   1    3.73   18.59
  25   8   1   25.58   16.85
 -25  -8   1   26.48   18.16
  -8  25  -1   -0.52   12.52
 -25  -8   3    4.44   15.12
  -8  25   3  -14.10   18.83
 -25  -8   3   13.53   19.94
  25   8   3   -8.37   18.37
   8 -25  -3   -2.92   20.35
   9 -25   0  -17.12   22.26
 -25  -9   0   11.60   15.25
   9 -25   0  -17.64   15.34
 -25  -9   0  -25.45   14.74
  25   9   0   11.34   15.82
  -9  25   0    1.35   14.48
  -9  25   0   20.25   20.45
  -9  25   0   -4.30   14.17
 -25  -9   0    0.89   18.12
   9 -25  -2  -29.25   22.20
 -25  -9   2   -9.04   15.13
   9 -25  -2  -10.29   16.39
  -9  25  -2   -6.78   12.11
  25   9  -2    3.57   14.86
 -25  -9  -2  -14.92   17.90
  -9  25   2    6.03   16.98
  -9  25   2   25.10   18.68
 -25  -9   2   19.55   19.08
  25   9   2    7.01   17.75
  10 -25  -1  -14.78   21.96
 -25 -10   1   -2.39   14.40
  10 -25  -1  -24.03   16.46
  10 -25   1   -1.91   15.91
  25  10  -1   28.05   15.31
 -25 -10  -1   -8.52   15.82
 -25 -10   1   18.01   14.38
 -10  25   1   16.86   15.86
  25  10   1    0.71   16.05
 -10  25  -1  -12.28   13.81
 -10  25   1    0.79   16.51
 -25 -10   1  -23.08   19.12
 -10  25  -1   10.55   13.88
 -10  25   3   42.02   20.38
 -25 -10   3   24.13   18.99
  25  10   3   28.37   18.12
 -11  25   0    3.64   15.27
  11 -25   0   -2.09   16.79
 -25 -11   0   10.51   15.39
  25  11   0    2.54   15.42
 -11  25   0   -7.41   15.18
  11 -25  -2  -11.01   17.42
 -11  25   2    6.44   18.19
  25  11   2  -28.39   17.01
 -25 -11   2  -16.01   18.65
 -12  25  -1    5.88   14.83
 -12  25  -1  -13.30   14.12
 -12  25   1   -2.55   17.14
  12 -25  -1    9.21   17.20
  12 -25   1  -10.63   16.94
 -25 -12  -1  -25.56   17.09
 -25 -12   1   26.74   15.87
 -12  25   1  -16.68   16.79
  25  12   1  -20.71   16.75
 -13  25   0   22.09   16.26
  13 -25   0   -0.77   17.62
 -25 -13   0   16.27   15.68
 -13  25   0    9.51   16.13
  13 -25  -2    5.93   17.90
  13 -25   2   -8.05   17.82
 -13  25   2    4.28   19.13
  25  13   2   -6.09   16.98
 -14  25  -1   -0.72   16.22
  14 -25  -1  -33.39   18.44
  14 -25   1  -18.89   18.41
 -14  25  -1   -2.89   15.41
 -25 -14  -1    3.32   16.65
 -25 -14   1    6.56   16.43
 -14  25   1  -14.59   17.04
  15 -25   0   -5.84   18.43
 -25 -15   0    0.79   16.48
 -15  25   0  -20.64   17.71
  15 -25   2   11.28   19.61
 -16  25  -1   10.25   16.42
 -16  25  -1   19.55   17.46
  16 -25   1    9.43   18.91
 -25 -17   0  -10.22   17.48
 -15 -26   1   -6.15   15.98
 -26  15   1    2.76   20.79
  26 -14  -2  -23.24   18.25
  26 -13  -1  -19.41   17.94
  26 -13   1   32.91   18.94
 -13 -26   1    4.43   15.58
  13  26  -1  -28.12   18.80
 -26  13   1   22.86   20.51
 -13 -26   3    7.51   20.66
 -26  12   0   16.42   21.48
  26 -12   0   16.23   17.62
 -12 -26   0   14.92   16.67
  12  26   0   -0.87   18.11
  26 -12  -2   41.75   17.84
  26 -12  -2    1.54   17.88
 -12 -26   2   11.29   20.38
 -26  11  -1    7.32   22.01
  26 -11  -1  -12.60   16.70
  26 -11   1  -15.78   18.28
 -11 -26   1    6.44   15.42
  11  26  -1   14.16   17.50
 -26  11   1   15.98   19.43
 -11 -26  -3   16.05   18.18
  11  26  -3   -7.15   18.54
 -11 -26   3    9.40   21.01
  10  26   0   30.09   17.91
 -26  10   0   31.04   21.26
  26 -10   0   30.73   16.71
 -10 -26   0   42.28   16.48
 -10 -26   2   -1.93   14.32
  26 -10  -2   12.51   16.23
  26 -10   2  -11.23   19.14
 -10 -26  -2   13.25   17.12
  26 -10  -2   -8.99   16.41
  10  26  -2  -14.71   18.89
 -10 -26   2    0.94   19.30
 -26   9   1   27.57   19.09
 -26   9  -1    9.38   22.28
   9  26   1   23.58   17.78
  -9 -26   1   28.66   15.71
  -9 -26  -1   42.81   17.59
  26  -9  -1   31.17   15.81
  26  -9   1   27.96   17.19
  -9 -26  -1    6.78   16.28
   9  26  -1   -0.94   18.64
  -9 -26   1   -2.83   19.83
   9  26  -1   -8.31   16.10
  -9 -26  -3   -2.50   18.57
   9  26  -3   -0.90   18.72
  -9 -26   3   47.80   22.25
 -26   8   0   16.61   20.52
   8  26   0   -3.21   16.86
  26  -8   0    6.22   15.95
  -8 -26   0   48.20   16.51
  -8 -26   0   32.35   15.63
  26  -8   2  -26.69   17.43
  -8 -26  -2   19.09   17.03
 -26   8  -2   26.72   19.19
  -8 -26   2    0.62   14.18
   8  26  -2   10.97   18.47
  -8 -26   2   -1.88   19.77
  -8 -26   4  -12.93   22.72
   8  26  -4   20.23   18.81
 -26   7   1  -16.58   19.35
   7  26  -1    7.30   16.15
 -26   7  -1  -13.36   21.85
  -7 -26   1   12.02   14.44
  26  -7  -1   22.13   14.80
   7  26   1   29.12   17.84
  26  -7   1  -10.82   16.29
  -7 -26  -1  -22.55   16.90
 -26   7  -1   20.73   19.34
  -7 -26   1    8.12   15.29
  -7 -26  -1    6.47   16.37
   7  26  -1  -25.01   18.70
  -7 -26   1   11.58   15.22
  -7 -26   1   15.15   19.98
  26  -7   3   -0.85   18.36
  -7 -26  -3   10.26   18.87
 -26   7  -3  -27.71   19.12
   7  26  -3    0.90   18.72
  -7 -26   3  -14.53   20.56
 -26   6   0  -20.64   17.84
 -26   6   0  -16.40   19.89
   6  26   0    3.83   16.54
  26  -6   0   -9.50   14.82
 -26   6   0   32.51   20.89
  -6 -26   0   -0.67   16.49
   6  26   0   37.57   19.28
  -6 -26   0  -29.75   20.85
  -6 -26   0   -4.42   15.75
 -26   6  -2    7.87   22.96
  -6 -26   2  -19.12   15.45
  26  -6   2    9.80   16.86
  -6 -26  -2   20.49   17.68
  -6 -26   2    1.79   13.89
 -26   6  -2    4.74   18.98
   6  26  -2   27.45   18.99
  -6 -26   2   18.22   20.99
   6  26  -2  -19.11   15.16
  -6 -26   4   25.77   22.76
   6  26  -4   25.01   18.80
 -26   5   1   16.10   17.94
 -26   5   1  -13.21   18.80
 -26   5  -1   -8.12   21.93
 -26   5  -1   12.81   17.13
   5  26  -1   19.72   15.62
  26  -5  -1    9.46   13.83
  26  -5   1    5.95   15.32
  -5 -26  -1   20.63   17.15
   5  26   1    3.17   16.33
  -5 -26  -1  -14.70   17.26
 -26   5  -1    3.90   18.46
  -5 -26   1    1.35   16.77
  26  -5  -1   -0.91   19.81
  -5 -26   1   11.90   14.65
   5  26  -1   -3.69   18.97
  -5 -26   1   13.40   20.43
  -5 -26   3  -10.95   21.13
  -5 -26   3   15.74   16.01
  26  -5   3    0.81   17.01
  -5 -26  -3  -17.54   18.71
 -26   5  -3  -14.86   18.14
   5  26  -3    3.64   18.86
 -26   4   0   38.28   18.21
 -26   4   0   64.26   22.27
  26  -4   0   43.67   14.70
   4  26   0   48.14   16.55
 -26   4   0   23.23   19.54
  -4 -26   0   41.25   17.55
  26  -4   0   63.57   20.73
   4  26   0   57.43   20.19
  -4 -26   0   58.96   20.98
  -4 -26   0   59.02   16.09
   4  26  -2   12.45   14.89
 -26   4  -2   16.67   23.36
  -4 -26   2   18.07   15.78
  26  -4   2   -8.36   16.23
   4  26   2   -8.35   16.69
  -4 -26  -2   38.09   18.30
  26  -4  -2   15.47   20.02
 -26   4  -2   38.88   18.55
   4  26  -2   26.68   20.03
 -26   4   2   19.47   18.40
  -4 -26  -2   47.64   17.65
  -4 -26   2  -10.77   21.38
  26  -4   4   -1.76   17.93
   4  26   4  -16.08   17.20
 -26   3   1  -22.86   18.16
 -26   3   1   10.09   18.45
 -26   3  -1   -9.02   21.86
 -26   3  -1   34.03   16.99
  26  -3   1  -33.97   14.06
   3  26  -1   -0.68   15.65
   3  26   1  -19.69   15.63
  -3 -26  -1   -7.67   17.29
  26  -3  -1   -0.88   19.51
 -26   3  -1   11.62   19.05
   3  26   1  -10.35   18.80
  26  -3   1   12.70   20.48
   3  26  -1  -12.01   18.86
  -3 -26  -1   -8.56   15.97
  -3 -26   1   -0.96   20.47
  -3 -26   3    9.25   21.83
  -3 -26   3   -9.87   16.76
  26  -3   3   -6.82   16.41
  -3 -26  -3  -40.55   20.04
   3  26   3   -4.12   15.83
   3  26  -3   22.96   18.49
 -26   3   3    0.86   18.04
 -26   2   0   68.92   18.15
 -26   2   0   49.17   21.37
   2  26   0   43.06   15.71
  -2 -26   0   35.42   17.86
 -26   2   0   53.74   20.50
  26  -2   0  -17.58   20.20
   2  26   0   30.46   19.47
  -2 -26   0   53.75   20.98
 -26   2  -2    5.49   23.35
  -2 -26   2  -11.09   16.60
   2  26  -2   19.40   14.54
  26  -2   2   11.55   14.62
  -2 -26  -2   14.24   18.48
  26  -2  -2   33.58   19.24
   2  26   2    3.22   15.49
 -26   2  -2   31.46   19.17
   2  26  -2  -31.37   19.44
  -2 -26  -2   16.72   16.83
 -26   2   2    8.95   17.54
  -2 -26   2  -16.94   21.26
  -2 -26   4    2.34   18.14
  26  -2   4    3.35   17.77
   2  26   4  -23.04   18.22
 -26   1   1   -0.79   16.97
 -26   1   1  -20.80   18.81
 -26   1  -1   23.76   20.92
 -26   1  -1  -26.60   17.39
  26  -1   1   21.72   12.90
   1  26  -1    7.71   14.44
 -26   1   1   11.29   20.32
  -1 -26  -1   35.30   18.74
  26  -1  -1    1.69   19.05
   1  26   1    8.00   15.50
 -26   1  -1   19.33   20.04
  26  -1   1  -12.31   19.42
   1  26  -1    4.62   18.58
  -1 -26   1   -5.92   21.56
  -1 -26   3    6.33   22.41
  -1 -26   3    5.29   17.33
  26  -1   3   22.01   16.06
  26  -1  -3   -5.18   19.27
   1  26   3    7.75   16.12
 -26   1   3   18.98   18.58
 -26   0   0  -53.70   17.57
 -26   0   0   -1.77   19.62
   0 -26   0  -16.69   18.27
   0  26   0   17.90   14.58
  26   0   0   -4.25   19.64
   0  26   0    0.93   18.43
   0 -26   0    8.84   21.08
   0 -26   2   38.04   22.72
   0 -26   2    8.92   17.44
 -26   0  -2   27.26   22.23
 -26   0  -2  -29.81   17.59
  26   0   2    6.45   13.45
   0  26  -2    0.59   14.02
   0 -26  -2    1.73   19.05
 -26   0   2   52.73   22.06
  26   0  -2   15.56   18.16
   0  26   2  -21.15   14.64
   0  26   2   -5.48   15.34
   0  26  -2   14.09   18.80
  26   0   2   -4.42   19.99
 -26   0   2   14.06   16.96
 -26   0  -4   14.72   18.11
   0 -26   4   11.64   18.62
  26   0   4    1.59   16.61
   0  26   4   19.58   18.93
 -26   0   4   21.28   18.83
 -26  -1   1   -9.15   17.00
 -26  -1   1   42.36   19.65
 -26  -1  -1   30.62   21.72
 -26  -1  -1   15.74   16.56
   1 -26  -1   27.63   19.05
 -26  -1   1    1.01   20.39
  26   1  -1   54.19   18.84
  -1  26  -1    9.18   14.08
  -1  26   1   43.44   13.59
  -1  26   1   47.46   18.83
 -26  -1  -1   70.77   20.71
  26   1   1   49.60   19.59
  -1  26  -1   30.90   19.30
  -1  26   1   38.78   15.04
   1 -26  -1   -1.99   20.62
   1 -26   1   38.47   21.75
   1 -26   3   28.24   17.73
  26   1   3   14.00   14.83
  26   1  -3   -8.97   17.78
  -1  26   3    1.45   16.35
 -26  -1   3  -15.74   17.61
 -26  -2   0    8.33   16.84
 -26  -2   0   23.85   19.50
  26   2   0   35.21   18.80
  -2  26   0    8.91   13.59
 -26  -2   2   -3.01   16.05
   2 -26   2  -13.85   22.60
   2 -26   2  -29.38   18.34
 -26  -2  -2   12.00   23.21
   2 -26  -2   -8.98   19.45
  26   2  -2  -15.50   17.87
  -2  26  -2   -5.10   13.72
 -26  -2   2   27.25   21.07
  -2  26   2   -3.73   14.59
  26   2   2    9.52   18.26
 -26  -2  -2    1.82   18.81
  -2  26   2  -14.69   15.77
 -26  -2  -4   11.22   17.80
   2 -26   4   36.31   19.38
  26   2   4   -5.37   16.41
  26   2  -4  -21.57   17.49
  -2  26   4   -9.60   19.16
 -26  -2   4   -0.81   17.97
   3 -26   1  117.91   23.12
  -3  26   1   60.54   16.08
 -26  -3   1   89.25   17.65
 -26  -3   1   56.21   19.14
 -26  -3  -1   88.82   22.37
 -26  -3  -1   61.50   17.92
   3 -26  -1    2.63   19.63
  26   3  -1   41.57   18.93
 -26  -3   1   72.81   21.01
  -3  26   1   58.56   14.61
  -3  26   1   20.66   19.63
  26   3   1   19.94   19.12
  -3  26  -1   89.42   20.22
  -3  26  -1   67.21   14.49
   3 -26  -1   70.72   22.06
   3 -26   3    2.58   18.48
  26   3  -3   12.30   17.76
  -3  26   3   -7.51   17.55
 -26  -3   3   41.55   17.07
  -4  26   0  -10.70   13.79
 -26  -4   0  -34.47   16.07
 -26  -4   0   25.69   19.94
  26   4   0  -15.64   18.39
 -26  -4   0  -16.64   19.57
 -26  -4   2    8.69   16.40
  -4  26   2  -11.70   15.62
   4 -26   2    7.61   18.76
 -26  -4  -2   18.64   22.34
  26   4  -2  -12.42   16.93
  -4  26   2   -1.98   15.34
 -26  -4   2   -8.19   21.09
  26   4   2    9.32   18.82
  26   4  -4    1.51   16.68
 -26  -4   4    9.26   17.69
  -5  26  -1   12.63   12.70
 -26  -5   1  -20.52   16.41
   5 -26   1   12.75   19.08
  -5  26   1   12.76   15.04
 -26  -5   1   26.52   18.66
 -26  -5  -1    7.98   21.40
 -26  -5  -1   12.80   16.78
   5 -26  -1   12.77   19.42
  26   5  -1   22.59   17.45
 -26  -5   1   37.94   13.25
 -26  -5   1    0.99   19.86
  -5  26   1   10.11   14.23
  26   5   1   20.05   17.56
   5 -26  -1  -11.31   22.66
 -26  -5   3    0.72   17.15
  26   5  -3   -6.43   16.67
  -5  26   3   20.41   17.97
 -26  -6   0   36.24   16.29
 -26  -6   0    6.31   20.01
  -6  26   0   23.75   14.31
   6 -26   0   60.91   14.22
 -26  -6   0   50.87   14.91
  26   6   0   31.46   17.72
  -6  26   0   16.72   13.73
 -26  -6   0   24.77   18.27
 -26  -6   2    2.08   16.28
   6 -26   2    7.17   19.59
  26   6  -2   13.03   16.67
  -6  26   2   35.14   16.70
 -26  -6   2   31.23   19.86
  26   6   2   34.01   18.26
   7 -26   1   16.98   19.55
 -26  -7   1   10.19   15.32
 -26  -7   1   15.18   18.65
  -7  26  -1    5.83   12.71
   7 -26  -1   -6.37   15.31
  -7  26   1   14.81   15.45
 -26  -7  -1    3.83   15.60
  26   7  -1  -17.85   16.60
 -26  -7   1   18.23   13.61
  -7  26   1   12.85   15.17
  26   7   1   26.48   17.52
 -26  -7   3   13.01   16.40
  -7  26   3    9.08   18.24
 -26  -8   0   35.06   15.48
   8 -26   0   20.84   15.14
  -8  26   0   25.60   14.40
 -26  -8   0   21.46   14.61
  26   8   0   27.89   17.81
  -8  26   0   33.47   14.51
 -26  -8   2    2.61   15.22
  26   8  -2   -3.21   15.21
 -26  -8  -2   -9.87   18.44
  -8  26   2    9.75   16.92
  26   8   2   -1.63   17.72
 -26  -9   1   11.60   15.28
   9 -26  -1   14.52   16.30
  -9  26  -1  -10.99   13.42
  26   9  -1   -4.52   16.04
  -9  26   1   13.31   16.14
 -26  -9  -1   37.42   17.20
 -26  -9   1   10.57   13.99
  -9  26   1   -0.69   15.63
  26   9   1  -17.41   17.59
  -9  26   3   -7.82   19.61
  10 -26   0  -18.28   16.18
 -26 -10   0   -9.78   15.39
  26  10   0   -0.68   16.77
 -10  26   0  -11.47   15.37
 -10  26   0   13.15   14.92
  10 -26  -2   -7.00   16.72
 -10  26   2   10.34   17.23
  26  10   2   10.48   17.61
  11 -26  -1  -27.87   16.70
  11 -26   1   11.63   16.55
 -26 -11  -1   -8.07   16.45
 -26 -11   1   -4.63   14.78
  26  11   1   -5.89   17.11
 -11  26   1    7.45   16.60
 -11  26  -1    3.26   13.96
 -12  26   0    0.77   16.15
 -26 -12   0  -16.11   15.67
 -12  26   0  -18.58   15.70
  12 -26  -2   24.13   17.98
 -12  26   2   -1.69   18.60
  26  12   2  -19.17   18.88
 -13  26  -1   28.15   15.43
  13 -26  -1   16.32   17.86
  13 -26   1    3.03   18.24
 -26 -13  -1   14.99   17.24
 -13  26   1   11.95   17.39
  14 -26   0   -9.83   18.50
 -26 -14   0  -15.54   16.65
 -14  26   0  -13.98   16.95
 -15  26  -1    9.19   16.08
  15 -26   1   10.74   18.57
 -15  26  -1   16.76   16.17
 -26 -16   0    9.98   17.73
 -27  14   1  -40.34   21.79
  27 -13   0   12.07   18.94
  27 -12  -1   27.74   17.30
  27 -12   1   27.25   19.07
 -12 -27   1   -9.80   16.02
 -27  12   1  -12.32   21.13
 -27  11   0   27.39   22.16
  27 -11   0  -27.94   17.68
  11  27   0   22.25   18.58
 -11 -27   0   33.10   16.94
 -10 -27   1   27.95   15.83
  27 -10  -1   19.60   16.33
  27 -10   1  -17.28   17.90
  10  27  -1   16.94   17.35
 -27  10   1   22.88   19.93
 -10 -27  -3   -3.39   18.72
 -27   9   0  -17.22   21.71
   9  27   0  -22.13   18.40
  27  -9   0  -20.66   16.81
  -9 -27   0    1.58   16.18
  27  -9   2    5.97   18.26
  -9 -27  -2   17.12   18.11
   8  27  -1   -3.11   17.27
 -27   8   1   29.61   19.62
 -27   8  -1   10.66   22.39
  27  -8   1   14.57   16.63
  -8 -27  -1    7.94   16.92
  -8 -27   1   15.83   15.81
  -8 -27  -3   27.01   19.81
 -27   7   0   20.03   21.68
   7  27   0    5.72   17.07
  27  -7   0  -13.59   15.29
  -7 -27   0    4.09   16.60
  -7 -27   0   -9.32   16.97
  27  -7   2   39.15   17.77
  -7 -27  -2  -13.70   17.96
 -27   6   1   19.55   20.18
 -27   6  -1  -31.60   23.11
   6  27  -1   -6.77   16.88
  -6 -27  -1   10.84   17.04
  -6 -27   1   -6.88   15.50
  27  -6   1   12.00   16.16
   6  27   1   47.29   17.58
  -6 -27   1   27.28   15.49
  -6 -27  -1   -1.50   17.44
  -6 -27   1   30.51   16.92
  27  -6   3   16.91   17.81
 -27   5   0  -14.12   21.72
   5  27   0    0.78   16.15
  -5 -27   0  -18.04   16.66
  -5 -27   0   -3.79   15.90
  -5 -27   2    2.59   15.80
  27  -5   2    9.63   16.31
  -5 -27  -2    4.15   18.16
 -27   4   1   39.54   19.66
 -27   4  -1   -1.04   22.51
   4  27  -1   11.55   16.07
  27  -4   1   23.15   15.08
  -4 -27  -1   -5.72   16.85
   4  27   1    2.41   16.49
  -4 -27  -1    1.56   17.44
  -4 -27   1  -11.63   17.18
  -4 -27   1   -0.68   15.02
  27  -4   3    3.99   17.23
 -27   3   0  -11.02   17.89
 -27   3   0    0.93   20.49
   3  27   0   -2.23   15.85
  -3 -27   0   13.71   18.49
  -3 -27   0  -11.13   15.75
 -27   3  -2  -23.95   24.36
  -3 -27   2   -4.88   16.88
  27  -3   2   -2.04   15.25
  -3 -27  -2   -0.85   18.09
 -27   2   1   21.75   17.96
 -27   2   1   21.62   19.57
 -27   2  -1    2.07   22.47
   2  27  -1   34.47   15.88
  -2 -27  -1   11.41   18.74
   2  27   1   53.84   16.52
  27  -2  -1   -8.09   20.61
  -2 -27   3   32.39   17.58
  27  -2   3   -2.99   16.36
 -27   1   0    0.82   17.86
 -27   1   0   22.14   20.55
   1  27   0   20.43   15.03
  -1 -27   0   23.37   18.30
  27  -1   0  -22.52   19.11
 -27   1  -2  -25.01   24.39
  -1 -27   2  -25.34   17.46
  -1 -27  -2    3.53   19.10
  27  -1  -2   -1.75   18.52
 -27   1   2  -37.27   18.91
  -1 -27   4   -9.09   18.28
  27  -1   4   -4.16   17.21
   1  27   4  -22.19   18.85
 -27   0   1  -12.11   17.51
 -27   0   1   -9.63   18.92
 -27   0  -1   43.17   22.81
 -27   0  -1  -14.11   18.45
   0  27  -1   -0.66   14.61
   0 -27  -1   28.10   19.04
  27   0  -1   -0.86   19.27
   0  27   1   -2.96   15.25
  27   0   1   -9.03   19.73
   0 -27   3    5.63   18.04
  27   0  -3   23.46   18.85
   0  27   3   16.60   16.67
 -27   0   3    5.01   18.18
 -27  -1   0   11.21   17.11
 -27  -1   0  -28.54   21.35
   1 -27   0   32.22   19.12
  27   1   0  -52.19   20.14
  -1  27   0   -3.37   15.01
 -27  -1   2  -20.79   16.63
   1 -27   2   19.12   18.12
 -27  -1  -2   -4.52   23.69
  27   1  -2    2.49   18.48
  -1  27   4   -0.87   18.37
 -27  -2   1   15.66   17.03
 -27  -2   1   28.01   19.36
 -27  -2  -1   50.18   21.79
 -27  -2  -1   14.58   17.42
   2 -27  -1  -17.75   20.04
  27   2  -1   11.51   18.37
  -2  27  -1   20.00   13.85
  27   2   1    1.76   19.75
  -2  27   1   22.39   15.07
   2 -27   3   -2.58   19.44
  27   2  -3   32.00   19.26
  -2  27   3   -0.75   16.60
 -27  -2   3   -9.64   17.67
 -27  -3   0    4.68   16.69
 -27  -3   0  -13.79   20.36
  27   3   0  -33.47   19.58
  -3  27   0  -15.10   14.46
 -27  -3   2  -37.01   17.81
   3 -27   2    4.24   18.71
 -27  -3  -2  -24.89   24.12
  27   3  -2   -3.13   17.80
  -3  27   2  -11.78   15.75
  27   3  -4   11.21   17.77
 -27  -3   4   29.54   19.10
  -4  27   1  -10.85   14.71
 -27  -4   1   27.85   16.85
   4 -27   1  -22.37   19.79
 -27  -4   1   25.86   18.95
 -27  -4  -1    4.12   21.24
 -27  -4  -1   -8.73   16.48
  27   4  -1  -25.77   18.59
 -27  -4   1    2.28   12.55
  27   4   1  -16.20   18.95
  -4  27  -1   -7.84   13.69
 -27  -4   3    7.68   17.66
  27   4  -3   -0.76   16.51
  -4  27   3   26.57   17.70
  -5  27   0    0.66   13.95
 -27  -5   0   -9.82   16.60
 -27  -5   0  -31.53   20.60
 -27  -5   0    3.34   14.49
  27   5   0   37.73   19.14
 -27  -5   2    6.66   16.21
  27   5  -2    0.74   17.43
  -5  27   2  -29.91   16.91
  -6  27  -1    0.60   13.53
 -27  -6   1    2.18   16.38
 -27  -6   1  -16.40   19.36
  -6  27   1  -11.15   15.55
 -27  -6  -1  -28.22   22.02
 -27  -6  -1  -23.65   16.37
  27   6  -1   14.03   17.17
 -27  -6   1   -2.36   13.29
  -6  27   1  -15.17   15.30
  27   6   1  -22.24   19.15
 -27  -6   3    6.61   17.26
  -6  27   3    1.64   17.73
 -27  -7   0   12.43   16.30
  -7  27   0    0.67   14.14
 -27  -7   0   -0.68   14.70
  27   7   0   -3.82   17.79
 -27  -7   2   14.76   16.96
  27   7  -2   10.38   16.64
  -7  27   2   23.72   17.10
  27   7   2   30.91   18.54
 -27  -8   1   -6.24   16.07
   8 -27  -1  -11.57   15.95
  -8  27  -1   15.33   13.58
  27   8  -1    6.27   16.52
 -27  -8  -1    6.34   16.45
  -8  27   1   26.51   16.01
  27   8   1   -4.00   17.83
  -8  27   3   21.57   18.74
  -9  27   0    2.85   14.93
 -27  -9   0   -8.47   15.16
  27   9   0    2.92   16.84
  -9  27   2   -7.07   17.36
  27   9   2   -2.53   18.25
  10 -27  -1   -8.84   16.67
 -10  27  -1    1.94   14.00
 -27 -10  -1   14.62   16.78
  27  10   1   15.56   17.95
 -10  27   1   -0.73   16.63
  11 -27   0   -8.70   17.15
 -27 -11   0   -5.14   15.71
 -11  27   0    3.04   15.79
  11 -27  -2  -10.70   17.68
 -11  27   2   10.83   18.38
  27  11   2   17.52   18.57
  12 -27  -1    5.61   18.15
 -12  27   1   18.02   17.23
 -12  27  -1   -2.07   15.33
  13 -27   0   12.72   18.17
 -27 -13   0   16.94   16.67
 -13  27   0  -20.49   16.63
 -14  27  -1   15.61   15.82
  28 -12   0   10.18   18.61
 -11 -28   1  -25.53   17.42
  28 -11   1    2.61   18.10
  11  28  -1   35.08   18.18
 -28  10   0   -6.01   23.55
  28 -10   0    3.93   17.13
  28  -9   1   -0.81   16.80
  -9 -28   1  -21.14   16.47
 -28   8   0   17.74   22.31
   8  28   0    1.74   18.17
  -8 -28   0   -8.15   17.07
  28  -8   2   -7.58   17.70
  -8 -28  -2    3.28   18.45
   7  28  -1    3.99   16.92
 -28   7  -1   19.63   23.70
  28  -7   1   -6.01   16.61
  -7 -28   1   20.67   16.00
  -7 -28  -1   27.47   18.25
 -28   6   0   13.66   21.80
   6  28   0   36.64   17.58
  -6 -28   0    0.73   17.46
  -6 -28   0   -4.79   16.72
  28  -6   2    3.92   16.75
  -6 -28  -2  -15.27   19.26
  -5 -28   1  -17.24   16.00
 -28   5  -1   20.66   23.56
   5  28  -1  -15.41   17.23
  -5 -28   1    4.76   16.37
  -5 -28  -1   21.48   18.74
  -5 -28   1   -4.39   17.58
  28  -5   3    2.52   17.84
 -28   4   0   36.73   22.07
   4  28   0   -7.94   17.00
  -4 -28   0  -27.32   16.81
  -4 -28   0  -22.40   18.42
  -4 -28   2    2.79   16.53
  -4 -28  -2  -16.61   19.58
 -28   3   1  -21.57   19.87
 -28   3  -1   -8.62   22.39
  -3 -28  -1   -3.36   17.74
  -3 -28   1    5.10   17.47
   3  28  -1   17.76   16.49
   3  28   1  -21.11   16.95
  -3 -28  -1  -20.72   19.22
  -3 -28   1  -48.50   18.89
 -28   2   0   27.79   21.93
   2  28   0   39.80   16.47
  -2 -28   0   15.53   18.79
  -2 -28   2    8.24   17.31
 -28   1  -1    3.20   22.52
  -1 -28   1   24.09   18.39
   1  28  -1   27.48   15.84
  -1 -28  -1   -8.64   18.86
   1  28   1   14.81   15.83
  -1 -28   3  -35.32   18.48
 -28   0   0  -11.48   21.02
   0 -28   0   -0.86   18.90
   0  28   0   20.09   15.34
   0 -28   2  -19.23   18.51
 -28  -1   1  -12.43   18.66
   1 -28   1   14.84   18.86
 -28  -1  -1   14.86   21.82
   1 -28  -1   -7.22   19.55
  -1  28  -1   28.12   15.08
  28   1  -1  -11.39   19.32
  -1  28   1   -8.32   15.68
 -28  -2   0    3.30   17.03
 -28  -2   0   40.07   21.76
   2 -28   0  -37.88   20.64
  28   2   0   -7.10   19.13
  -2  28   0   -6.92   14.65
 -28  -2   2   16.35   18.17
   2 -28   2    8.52   19.22
  28   2  -2    5.02   18.44
 -28  -3   1   75.87   18.60
   3 -28   1   57.45   20.13
 -28  -3  -1   40.40   22.83
  28   3  -1   45.05   19.85
  -3  28  -1   38.49   14.74
  -3  28   1   46.99   16.53
 -28  -3   3  -16.32   18.36
  28   3  -3  -56.87   19.11
 -28  -4   0   17.59   16.70
 -28  -4   0  -19.16   21.19
 -28  -4   0  -12.45   15.17
  28   4   0  -25.60   19.38
  -4  28   0    9.50   14.31
 -28  -4   2   16.53   17.64
  28   4  -2   -1.58   17.91
 -28  -5   1    3.09   17.06
 -28  -5  -1  -15.03   22.39
 -28  -5  -1   31.93   17.87
 -28  -5  -1   15.50   16.89
  28   5  -1   20.57   17.83
  28   5   1    1.75   19.33
  -5  28  -1    5.00   13.79
 -28  -5   3  -18.79   17.53
  -5  28   3    0.82   18.68
  -6  28   0   29.44   14.73
 -28  -6   0  -11.66   21.35
 -28  -6   0   13.18   16.82
 -28  -6   0   15.95   14.91
  28   6   0   26.18   18.65
 -28  -6   2   -2.25   17.26
  28   6  -2  -26.74   17.32
  -7  28  -1  -15.01   14.14
 -28  -7   1  -13.35   16.87
 -28  -7  -1  -10.95   22.94
  28   7  -1   38.88   17.61
 -28  -7  -1   11.36   16.82
  28   7   1  -43.36   19.97
 -28  -8   0    4.50   16.30
  -8  28   0   19.88   15.12
 -28  -8   0   20.57   15.44
  28   8   0   22.69   18.56
  -8  28   2  -17.87   17.02
  -9  28  -1   -7.79   13.79
 -28  -9  -1  -22.13   17.13
  28   9   1   31.42   19.31
 -28 -10   0  -10.28   15.77
 -10  28   2   -4.12   17.70
  11 -28  -1   10.96   17.45
 -28 -12   0   -7.65   16.86
 -10 -29   1   26.96   17.21
 -29   9   0   25.43   22.80
  -8 -29   1  -25.58   17.28
 -29   7   0  -36.22   23.28
  -7 -29  -2   14.69   19.24
   6  29  -1  -12.30   17.50
  -6 -29  -1   24.26   18.53
  -6 -29   1  -25.68   17.15
  -5 -29   0  -20.48   17.47
 -29   5   0  -13.99   22.17
   5  29   0  -14.31   17.47
  -5 -29   0  -12.50   18.02
  -4 -29   1   12.61   17.38
   4  29  -1  -19.76   18.03
  -4 -29  -1   29.49   19.10
  -4 -29   1   10.24   18.63
 -29   3   0   13.99   23.01
   3  29   0   -4.80   16.59
  -3 -29   0  -14.02   18.70
  -3 -29   2    1.50   17.54
 -29   2  -1  -24.34   23.04
  -2 -29   1    3.14   18.01
   2  29  -1   -0.75   16.43
  -2 -29  -1    6.15   19.42
  -2 -29   1   58.74   19.88
 -29   1   0   -0.99   21.77
   1  29   0   10.68   16.14
  -1 -29   0  -14.80   19.30
  -1 -29   2    9.65   18.06
 -29   0  -1   14.29   23.69
   0 -29   1    1.67   19.03
   0  29  -1    4.30   16.05
 -29  -1   0   -0.99   21.41
  -1  29   0  -11.71   15.75
 -29  -2  -1    1.10   22.82
  -2  29  -1   36.95   15.55
 -29  -3   0   43.56   22.34
  -3  29   0   12.80   15.10
 -29  -4   1   18.02   17.73
 -29  -4  -1  -36.47   24.00
  29   4  -1   18.58   19.46
 -29  -5   0   20.98   21.60
 -29  -5   0    0.82   17.19
 -29  -5   0    9.98   15.24
  -5  29   0   12.68   14.93
 -29  -5   2  -19.19   17.78
  29   5  -2   21.46   18.05
 -29  -6   1   -3.16   17.72
  29   6  -1  -17.60   18.13
 -29  -6  -1    0.84   17.39
 -29  -7   0    7.12   21.88
 -29  -7   0    6.37   16.77
 -29  -7   0  -11.53   15.55
  29   7   0   -1.67   18.71
 -29  -8   1  -22.69   17.27
 -29  -9   0   23.82   15.81
 -30   6   0  -17.66   23.34
 -30   4   0   11.35   22.87
  -4 -30   0    3.33   18.57
  -3 -30   1  -16.79   18.64
  -3 -30   1   -5.91   19.30
 -30   2   0   10.26   22.87
  -2 -30   2   12.12   18.44
 -30   0   0   26.59   22.95
 -30  -2   0   61.30   23.19
   0   0   0    0.00    0.00


TITL 300-yibc in I4(1)/a
REM I4(1)/a (#88 in standard setting)
CELL 0.71073  26.225970  26.225970   7.574320  90.0000  90.0000  90.0000
ZERR   97.00   0.001822   0.001822   0.000989   0.0000   0.0000   0.0000
LATT  2
SYMM -x+1/2,-y, z+1/2
SYMM -y+3/4, x+1/4, z+1/4
SYMM  y+3/4,-x+3/4, z+3/4
SFAC C H N O
UNIT 97.00 97.00 97.00 97.00
TREF
HKLF 4
END
_computing_structure_solution     'SHELXT 2014/5 (Sheldrick, 2014)'
;
_shelx_hkl_checksum               44205
_shelx_fab_file
;
0 0 4 -4.2931 -0.0004
0 1 3 -2.6902 0.0011
0 1 5 0.1906 0.0001
0 1 7 0.5385 -0.0001
0 2 2 7.3546 -0.0033
0 2 4 -2.8054 0.0000
0 2 6 -2.4171 -0.0001
0 2 8 -3.1566 0.0001
0 3 1 -17.6111 0.0042
0 3 3 0.3426 -0.0000
0 3 5 1.4100 0.0002
0 3 7 2.0981 -0.0003
0 4 2 11.4886 0.0032
0 4 4 -3.0418 0.0000
0 4 6 -2.7848 -0.0003
0 4 8 -4.7365 0.0005
0 5 1 -3.9817 0.0042
0 5 3 6.1876 0.0008
0 5 5 3.3914 0.0000
0 5 7 2.2386 -0.0000
0 6 0 -103.9562 0.0161
0 6 2 2.3727 -0.0008
0 6 4 -2.2672 -0.0002
0 6 6 0.0968 0.0000
0 6 8 4.3216 -0.0004
0 7 1 -2.7828 -0.0023
0 7 3 2.7093 -0.0004
0 7 5 1.9053 -0.0002
0 7 7 -0.3181 0.0001
0 8 0 -9.1274 0.0210
0 8 2 -2.0061 0.0015
0 8 4 -0.5028 -0.0001
0 8 6 -0.8470 -0.0001
0 8 8 2.0132 -0.0001
0 9 1 0.4668 0.0015
0 9 3 -3.4700 -0.0009
0 9 5 -0.6114 0.0001
0 9 7 -1.0099 -0.0004
0 10 0 18.2942 -0.0080
0 10 2 -0.4901 0.0002
0 10 4 -1.2120 -0.0000
0 10 6 -1.0124 0.0001
0 10 8 -7.7011 0.0009
0 11 1 11.5006 -0.0000
0 11 3 -6.5241 0.0009
0 11 5 0.3330 -0.0002
0 11 7 1.6673 0.0000
0 12 0 -15.1650 0.0047
0 12 2 0.0229 -0.0017
0 12 4 2.5195 -0.0000
0 12 6 2.3265 0.0001
0 12 8 -5.5612 -0.0011
0 13 1 9.4843 -0.0014
0 13 3 -2.6801 -0.0005
0 13 5 -1.7352 -0.0002
0 13 7 2.9428 0.0001
0 14 0 -18.6016 -0.0078
0 14 2 1.8334 0.0025
0 14 4 1.7412 -0.0000
0 14 6 1.7282 -0.0001
0 15 1 0.1618 0.0006
0 15 3 1.8986 0.0000
0 15 5 -4.4144 0.0006
0 15 7 4.6893 0.0001
0 16 0 -0.1971 -0.0070
0 16 2 0.6186 -0.0022
0 16 4 -3.8879 0.0000
0 16 6 0.5772 0.0000
0 17 1 -3.0479 -0.0014
0 17 3 0.0069 0.0003
0 17 5 0.1012 -0.0001
0 17 7 3.4435 -0.0004
0 18 0 2.5766 0.0039
0 18 2 -0.5436 -0.0001
0 18 4 -2.8714 0.0001
0 18 6 0.0048 -0.0004
0 19 1 -1.2296 0.0025
0 19 3 -2.3987 -0.0004
0 19 5 4.9811 -0.0004
0 19 7 -3.5913 -0.0011
0 20 0 0.9858 0.0057
0 20 2 1.2179 0.0014
0 20 4 -1.6500 0.0001
0 20 6 -7.5305 0.0001
0 21 1 0.7739 0.0007
0 21 3 -2.6569 0.0006
0 21 5 5.5784 -0.0001
0 22 0 2.6541 0.0021
0 22 2 -0.7796 -0.0012
0 22 4 -0.6421 -0.0002
0 22 6 -8.8266 0.0006
0 23 1 0.1683 -0.0009
0 23 3 -0.0328 -0.0008
0 23 5 4.2909 -0.0000
0 24 0 0.5728 -0.0228
0 24 2 -0.9813 0.0011
0 24 4 -0.3000 -0.0001
0 25 1 -0.8222 0.0003
0 25 3 3.5965 0.0007
0 25 5 0.6412 0.0006
0 26 0 0.7851 -0.0125
0 26 2 3.2253 -0.0009
0 26 4 -2.4983 0.0006
0 27 1 -0.3268 0.0006
0 27 3 2.9066 0.0008
0 28 0 -2.8167 0.0110
0 28 2 3.9715 0.0004
0 29 1 1.6536 0.0022
0 30 0 -7.0615 0.0037
1 1 2 9.4949 0.0004
1 1 4 -3.2615 0.0004
1 1 6 2.6843 0.0003
1 1 8 0.4838 0.0003
1 2 3 -4.0867 0.0005
1 2 5 1.1680 -0.0002
1 2 7 0.5428 0.0003
1 3 2 22.8671 0.0008
1 3 4 -2.7253 -0.0003
1 3 6 0.8465 0.0002
1 3 8 3.2318 -0.0000
1 4 1 53.8417 0.0028
1 4 3 -4.5401 0.0002
1 4 5 -0.9995 -0.0002
1 4 7 -0.9449 0.0003
1 5 2 4.4785 -0.0010
1 5 4 -1.5239 0.0003
1 5 6 -5.7608 -0.0001
1 5 8 -2.2633 0.0002
1 6 1 39.7692 -0.0006
1 6 3 -1.8270 -0.0003
1 6 5 -0.8147 -0.0002
1 6 7 -1.0291 -0.0001
1 7 2 -13.9430 0.0026
1 7 4 1.3593 -0.0007
1 7 6 -3.5004 -0.0000
1 7 8 -5.5112 -0.0005
1 8 1 9.7100 0.0009
1 8 3 0.7991 0.0008
1 8 5 -0.5315 0.0000
1 8 7 0.5571 0.0003
1 9 2 -5.5476 0.0011
1 9 4 0.3218 0.0002
1 9 6 0.6431 0.0001
1 9 8 -3.4831 -0.0003
1 10 1 -6.4304 0.0022
1 10 3 -2.6819 0.0002
1 10 5 -0.6824 0.0003
1 10 7 1.5244 -0.0003
1 11 2 5.4981 -0.0021
1 11 4 -0.6611 -0.0001
1 11 6 -1.9976 0.0001
1 11 8 3.2977 0.0010
1 12 1 1.5181 -0.0029
1 12 3 -3.4353 -0.0004
1 12 5 0.7334 -0.0001
1 12 7 1.1387 -0.0006
1 13 2 3.0775 0.0007
1 13 4 1.9728 -0.0007
1 13 6 1.3555 -0.0001
1 13 8 8.0268 -0.0018
1 14 1 8.3901 0.0009
1 14 3 1.6860 0.0001
1 14 5 -0.9883 -0.0004
1 14 7 -0.9319 0.0005
1 15 2 2.0754 -0.0003
1 15 4 -0.0604 0.0003
1 15 6 2.2519 0.0003
1 16 1 3.4372 0.0028
1 16 3 1.1220 0.0003
1 16 5 -2.4780 0.0004
1 16 7 -3.5761 0.0005
1 17 2 2.7986 0.0005
1 17 4 -2.8050 -0.0002
1 17 6 -6.8829 -0.0002
1 18 1 -2.0133 -0.0016
1 18 3 -3.4864 -0.0000
1 18 5 0.2507 -0.0004
1 18 7 -3.6203 -0.0006
1 19 2 -0.4094 0.0002
1 19 4 -2.4452 0.0002
1 19 6 -2.3254 -0.0008
1 20 1 -0.9125 -0.0012
1 20 3 -3.5814 0.0004
1 20 5 0.9371 -0.0006
1 21 2 -1.4750 -0.0008
1 21 4 -2.1901 -0.0004
1 21 6 5.6430 0.0014
1 22 1 -1.4316 -0.0018
1 22 3 1.4395 -0.0007
1 22 5 -3.2441 0.0008
1 23 2 -0.3247 0.0007
1 23 4 0.0575 -0.0001
1 24 1 -2.7164 0.0005
1 24 3 4.7807 0.0003
1 24 5 -2.9510 -0.0005
1 25 2 0.0929 -0.0006
1 25 4 1.8112 0.0008
1 26 1 -1.3680 0.0025
1 26 3 2.7681 0.0008
1 27 2 -0.3565 0.0002
1 27 4 0.2057 -0.0007
1 28 1 -5.1860 -0.0007
1 28 3 -0.2949 -0.0015
1 29 2 -1.9835 0.0007
2 1 3 -0.7413 0.0015
2 1 5 -1.2069 0.0001
2 1 7 -0.6658 -0.0001
2 2 2 -13.7008 -0.0017
2 2 4 -0.1296 0.0001
2 2 6 -6.1864 0.0000
2 2 8 1.2131 0.0004
2 3 1 43.8900 0.0066
2 3 3 -1.1170 0.0005
2 3 5 0.5334 0.0001
2 3 7 -0.4289 -0.0004
2 4 0 103.5126 0.0242
2 4 2 -13.5420 -0.0020
2 4 4 -1.6391 0.0003
2 4 6 0.6802 0.0000
2 4 8 -1.0733 -0.0003
2 5 1 56.8357 0.0026
2 5 3 -2.2274 0.0001
2 5 5 -4.1462 0.0001
2 5 7 1.2776 0.0002
2 6 0 98.0093 0.0035
2 6 2 4.7911 0.0037
2 6 4 -1.3662 -0.0002
2 6 6 1.1192 -0.0002
2 6 8 -6.6645 -0.0000
2 7 1 19.9213 -0.0034
2 7 3 3.2963 0.0004
2 7 5 -4.5238 -0.0002
2 7 7 1.3157 0.0000
2 8 0 13.7392 -0.0037
2 8 2 8.3021 -0.0017
2 8 4 -1.4561 -0.0003
2 8 6 -0.9295 -0.0002
2 8 8 -3.4752 0.0003
2 9 1 -4.2687 0.0028
2 9 3 6.4542 -0.0007
2 9 5 -0.4580 -0.0001
2 9 7 0.9356 -0.0002
2 10 0 -12.4136 0.0077
2 10 2 0.5596 0.0006
2 10 4 0.6376 -0.0001
2 10 6 0.7346 0.0002
2 10 8 5.5773 -0.0007
2 11 1 -0.9809 -0.0004
2 11 3 5.7075 0.0001
2 11 5 -1.4293 0.0002
2 11 7 0.1680 -0.0004
2 12 0 6.5164 -0.0049
2 12 2 -1.4164 0.0005
2 12 4 -0.2103 0.0001
2 12 6 -1.7138 0.0002
2 12 8 1.7165 0.0011
2 13 1 10.1977 0.0002
2 13 3 3.6925 0.0006
2 13 5 -0.5130 -0.0001
2 13 7 -2.4635 0.0003
2 14 0 9.3012 0.0007
2 14 2 -2.5078 -0.0022
2 14 4 1.4634 -0.0001
2 14 6 0.1764 0.0002
2 15 1 10.4442 -0.0001
2 15 3 1.7446 -0.0007
2 15 5 1.5744 0.0001
2 15 7 -5.0514 0.0005
2 16 0 2.3221 -0.0051
2 16 2 -4.1432 0.0021
2 16 4 4.7025 -0.0002
2 16 6 1.7456 0.0003
2 17 1 4.3955 -0.0006
2 17 3 2.2949 -0.0001
2 17 5 -3.1706 0.0002
2 17 7 -5.9248 -0.0010
2 18 0 2.1741 0.0016
2 18 2 -2.7777 -0.0018
2 18 4 0.2193 0.0002
2 18 6 -8.9754 -0.0005
2 19 1 1.2328 0.0026
2 19 3 1.7334 0.0006
2 19 5 -6.1001 -0.0008
2 20 0 1.0984 0.0059
2 20 2 -1.5298 0.0006
2 20 4 -3.0120 0.0001
2 20 6 -7.8390 -0.0006
2 21 1 -1.6982 -0.0007
2 21 3 -0.1275 -0.0003
2 21 5 -0.7579 -0.0001
2 22 0 -0.7991 -0.0081
2 22 2 0.5652 0.0011
2 22 4 0.0676 -0.0000
2 22 6 3.1494 0.0011
2 23 1 -0.5906 -0.0014
2 23 3 -1.9294 -0.0000
2 23 5 4.2896 0.0006
2 24 0 1.3756 -0.0058
2 24 2 3.4535 -0.0024
2 24 4 4.0161 -0.0004
2 25 1 1.7068 0.0023
2 25 3 -2.6958 -0.0003
2 26 0 -2.8531 -0.0046
2 26 2 1.0767 0.0016
2 26 4 5.2760 -0.0004
2 27 1 -1.2230 0.0003
2 27 3 0.0588 0.0006
2 28 0 -0.5754 0.0008
2 28 2 -5.6163 -0.0001
2 29 1 -2.9973 0.0001
2 30 0 9.3045 0.0044
2 30 2 -5.3983 0.0007
3 1 2 -5.9725 0.0001
3 1 4 2.7564 0.0007
3 1 6 -4.0880 0.0001
3 1 8 -5.7415 0.0003
3 2 1 30.2626 0.0009
3 2 3 -0.2797 -0.0004
3 2 5 3.8853 -0.0000
3 2 7 -0.7554 0.0002
3 3 2 -22.0219 0.0003
3 3 4 -0.4797 -0.0001
3 3 6 -3.0542 0.0003
3 3 8 -2.4330 0.0002
3 4 1 29.7812 -0.0019
3 4 3 4.5935 -0.0001
3 4 5 1.7071 -0.0005
3 4 7 -0.6807 0.0003
3 5 2 -9.4856 0.0015
3 5 4 -2.2403 -0.0005
3 5 6 2.3037 -0.0003
3 5 8 3.3398 -0.0003
3 6 1 -2.7744 -0.0022
3 6 3 8.5889 0.0003
3 6 5 -2.0344 0.0002
3 6 7 -0.7495 0.0001
3 7 2 3.4044 -0.0006
3 7 4 -3.3535 0.0006
3 7 6 2.6701 -0.0000
3 7 8 0.3070 -0.0002
3 8 1 -8.5508 0.0030
3 8 3 6.6733 0.0004
3 8 5 -0.2240 0.0001
3 8 7 0.6828 -0.0003
3 9 2 3.5319 0.0013
3 9 4 -0.2920 -0.0005
3 9 6 1.1139 0.0001
3 9 8 0.7002 -0.0002
3 10 1 4.6531 0.0002
3 10 3 3.2345 0.0005
3 10 5 0.5791 -0.0004
3 10 7 -1.8925 -0.0001
3 11 2 0.9297 0.0006
3 11 4 0.7038 0.0001
3 11 6 -0.2273 -0.0001
3 11 8 3.0927 -0.0005
3 12 1 4.1080 0.0011
3 12 3 0.4898 -0.0010
3 12 5 -1.0518 0.0002
3 12 7 -3.7480 -0.0006
3 13 2 -0.1107 -0.0016
3 13 4 -5.5367 -0.0002
3 13 6 -6.2094 0.0002
3 14 1 -2.5425 -0.0005
3 14 3 -2.6198 0.0004
3 14 5 1.9724 -0.0001
3 14 7 1.5635 0.0002
3 15 2 -2.7508 0.0021
3 15 4 -4.5007 -0.0006
3 15 6 -2.7198 -0.0001
3 16 1 -2.4340 0.0007
3 16 3 -1.6029 0.0005
3 16 5 5.9032 -0.0002
3 16 7 7.2785 0.0017
3 17 2 -1.3424 -0.0001
3 17 4 3.0815 0.0007
3 17 6 3.9112 0.0001
3 18 1 0.5560 0.0005
3 18 3 1.3180 -0.0000
3 18 5 3.4736 0.0005
3 18 7 6.5029 -0.0007
3 19 2 0.2707 -0.0009
3 19 4 3.9407 -0.0009
3 19 6 -4.7300 0.0003
3 20 1 1.4708 -0.0041
3 20 3 -0.5078 -0.0003
3 20 5 -2.0367 -0.0003
3 21 2 -0.3814 0.0006
3 21 4 0.2519 0.0004
3 21 6 -6.6497 -0.0014
3 22 1 3.6986 0.0008
3 22 3 -2.7437 -0.0001
3 22 5 -0.1594 -0.0007
3 23 2 2.4904 -0.0000
3 23 4 -0.6901 0.0002
3 24 1 5.4617 0.0011
3 24 3 -2.5395 0.0004
3 24 5 4.3801 0.0007
3 25 2 1.2790 0.0008
3 25 4 1.0892 -0.0004
3 26 1 3.8079 -0.0017
3 26 3 -5.1026 -0.0003
3 27 2 -0.6158 -0.0006
3 28 1 3.2613 0.0004
3 29 2 2.9892 0.0009
3 30 1 0.8590 -0.0009
4 1 1 51.4141 0.0076
4 1 3 5.1199 0.0005
4 1 5 -0.9993 0.0001
4 1 7 0.4352 0.0001
4 2 0 -61.6180 -0.0148
4 2 2 2.7010 -0.0003
4 2 4 -1.0102 0.0002
4 2 6 3.2322 0.0001
4 2 8 0.9113 -0.0000
4 3 1 -12.0838 -0.0062
4 3 3 6.1478 0.0015
4 3 5 -1.2754 -0.0000
4 3 7 -1.6525 0.0002
4 4 0 -45.2718 -0.0086
4 4 2 1.6343 -0.0007
4 4 4 2.0246 0.0002
4 4 6 0.8686 0.0001
4 4 8 1.1024 -0.0001
4 5 1 -23.9166 0.0023
4 5 3 3.0755 -0.0007
4 5 5 -0.0145 0.0001
4 5 7 -2.7995 -0.0002
4 6 0 -7.8240 0.0057
4 6 2 -8.1198 -0.0007
4 6 4 2.1227 -0.0001
4 6 6 0.4187 -0.0002
4 6 8 -2.0457 -0.0003
4 7 1 2.3754 0.0017
4 7 3 -2.4356 0.0005
4 7 5 -0.1023 0.0001
4 7 7 -1.0412 0.0003
4 8 0 13.1307 -0.0033
4 8 2 -3.0027 0.0017
4 8 4 1.6317 -0.0002
4 8 6 1.1527 -0.0003
4 8 8 0.9044 -0.0001
4 9 1 1.9193 -0.0035
4 9 3 -3.9425 0.0006
4 9 5 -0.2083 -0.0003
4 9 7 0.5714 -0.0004
4 10 0 -9.6007 -0.0011
4 10 2 4.8858 -0.0008
4 10 4 0.2567 -0.0002
4 10 6 -0.4936 0.0000
4 10 8 1.7772 0.0005
4 11 1 -11.9504 0.0049
4 11 3 -2.1012 -0.0004
4 11 5 -0.0546 0.0001
4 11 7 -3.3758 -0.0001
4 12 0 -24.8550 0.0033
4 12 2 1.3508 -0.0002
4 12 4 -0.4057 0.0000
4 12 6 1.3133 0.0004
4 12 8 1.9589 -0.0014
4 13 1 -12.9480 -0.0016
4 13 3 0.1760 0.0003
4 13 5 -0.5720 0.0003
4 13 7 -3.4986 0.0004
4 14 0 -16.4094 -0.0037
4 14 2 -0.7195 -0.0002
4 14 4 -2.1150 0.0001
4 14 6 0.4281 0.0003
4 15 1 -6.2571 -0.0001
4 15 3 0.2729 -0.0005
4 15 5 1.7384 -0.0005
4 15 7 3.8084 -0.0006
4 16 0 -5.3345 0.0013
4 16 2 3.7436 -0.0009
4 16 4 -2.5640 -0.0004
4 16 6 -4.9558 0.0002
4 17 1 -2.3949 0.0024
4 17 3 -1.7346 0.0000
4 17 5 2.9880 -0.0002
4 17 7 7.1563 0.0017
4 18 0 0.3102 -0.0000
4 18 2 2.4152 0.0014
4 18 4 3.0372 -0.0001
4 18 6 4.8763 0.0001
4 19 1 -2.6029 -0.0024
4 19 3 -1.9567 -0.0000
4 19 5 -0.5816 0.0001
4 20 0 1.9620 -0.0015
4 20 2 -4.1295 -0.0009
4 20 4 4.3602 0.0003
4 20 6 15.8001 -0.0008
4 21 1 1.3017 0.0008
4 21 3 -0.8182 0.0001
4 21 5 -4.5117 -0.0005
4 22 0 3.4998 -0.0015
4 22 2 -4.2429 -0.0003
4 22 4 -1.8946 -0.0001
4 23 1 2.8490 0.0000
4 23 3 -0.5118 0.0004
4 23 5 -4.1687 0.0002
4 24 0 1.1845 -0.0020
4 24 2 -0.3531 0.0001
4 24 4 -1.2601 0.0000
4 25 1 -0.2387 0.0002
4 25 3 -2.2045 -0.0008
4 25 5 -0.4034 0.0006
4 26 0 3.1049 0.0014
4 26 2 0.7896 -0.0006
4 26 4 2.8714 -0.0017
4 27 1 0.7376 0.0015
4 27 3 -3.5795 -0.0007
4 28 0 4.1006 -0.0019
4 28 2 2.8127 0.0005
4 29 1 0.2014 -0.0013
4 30 0 -3.4346 0.0005
5 1 2 1.6216 0.0001
5 1 4 -2.7897 -0.0001
5 1 6 1.0660 0.0001
5 1 8 1.9324 0.0003
5 2 1 -72.8374 -0.0105
5 2 3 5.4417 0.0004
5 2 5 -3.6241 -0.0001
5 2 7 -1.8759 0.0002
5 3 2 6.2628 -0.0005
5 3 4 0.4493 0.0002
5 3 6 -0.2205 -0.0001
5 3 8 -0.2140 0.0002
5 4 1 -62.1310 -0.0039
5 4 3 -4.8677 -0.0013
5 4 5 -0.9810 -0.0001
5 4 7 -2.0249 0.0001
5 5 2 14.3234 0.0017
5 5 4 0.2120 0.0001
5 5 6 0.8590 0.0001
5 5 8 -1.3873 -0.0003
5 6 1 -5.5629 0.0006
5 6 3 -10.4599 0.0011
5 6 5 3.3824 0.0000
5 6 7 0.9615 -0.0001
5 7 2 17.2522 0.0002
5 7 4 1.5171 0.0003
5 7 6 -2.1487 -0.0001
5 7 8 3.1511 -0.0002
5 8 1 9.6120 -0.0013
5 8 3 -5.7728 -0.0002
5 8 5 1.3407 0.0001
5 8 7 -2.3083 -0.0002
5 9 2 8.4027 -0.0006
5 9 4 1.1665 0.0004
5 9 6 -2.9434 -0.0001
5 9 8 0.6620 0.0000
5 10 1 1.0955 0.0031
5 10 3 0.8203 -0.0005
5 10 5 -0.5899 -0.0005
5 10 7 -0.6838 -0.0005
5 11 2 -0.3839 0.0013
5 11 4 -2.5198 -0.0009
5 11 6 1.6948 0.0000
5 11 8 -3.0781 -0.0005
5 12 1 -0.3105 -0.0003
5 12 3 2.7727 0.0009
5 12 5 -0.1763 -0.0001
5 12 7 3.2154 0.0003
5 13 2 -1.0935 0.0013
5 13 4 1.2589 0.0005
5 13 6 6.3733 -0.0002
5 14 1 -2.4250 0.0005
5 14 3 3.7992 -0.0012
5 14 5 1.4411 0.0004
5 14 7 -3.5657 0.0000
5 15 2 2.5092 -0.0006
5 15 4 3.3427 0.0001
5 15 6 2.0819 -0.0000
5 16 1 -1.6905 -0.0002
5 16 3 4.3986 0.0011
5 16 5 1.2812 -0.0004
5 16 7 -7.2562 -0.0003
5 17 2 -0.2872 0.0001
5 17 4 -3.5970 -0.0010
5 17 6 2.2403 0.0002
5 18 1 -0.1809 -0.0024
5 18 3 3.9890 -0.0002
5 18 5 -4.2087 0.0003
5 19 2 -2.0313 -0.0001
5 19 4 -4.9337 0.0009
5 19 6 12.0457 0.0003
5 20 1 -2.1995 0.0009
5 20 3 4.5809 -0.0010
5 20 5 -1.2655 0.0004
5 21 2 1.2599 0.0002
5 21 4 -1.3855 -0.0003
5 22 1 -3.4390 -0.0001
5 22 3 0.7173 0.0012
5 22 5 6.0144 -0.0007
5 23 2 -1.4720 0.0006
5 23 4 -5.1498 0.0001
5 24 1 -3.1675 -0.0002
5 24 3 -4.7094 -0.0008
5 24 5 0.5676 -0.0011
5 25 2 -2.3613 0.0001
5 25 4 -8.9015 0.0008
5 26 1 0.5764 -0.0016
5 26 3 -1.9656 0.0003
5 27 2 0.7900 0.0007
5 28 1 2.4013 -0.0023
5 28 3 2.0779 0.0004
6 1 1 -43.9723 0.0010
6 1 3 -2.3682 -0.0009
6 1 5 -0.0382 -0.0002
6 1 7 1.5216 -0.0002
6 2 0 34.5267 0.0017
6 2 2 4.9700 -0.0000
6 2 4 3.3352 0.0001
6 2 6 0.3487 0.0001
6 2 8 0.9792 -0.0001
6 3 1 -16.9170 0.0004
6 3 3 -4.4334 0.0010
6 3 5 0.8241 0.0001
6 3 7 1.2880 0.0004
6 4 0 -21.9644 -0.0094
6 4 2 6.5607 -0.0003
6 4 4 0.4845 0.0003
6 4 6 -1.0684 -0.0000
6 4 8 5.7053 -0.0001
6 5 1 -7.5977 -0.0065
6 5 3 0.5190 0.0008
6 5 5 3.4418 0.0002
6 5 7 -0.5447 0.0003
6 6 0 -39.5931 -0.0057
6 6 2 6.6600 -0.0015
6 6 4 -1.1174 -0.0003
6 6 6 -0.4981 -0.0000
6 6 8 4.8999 -0.0001
6 7 1 -9.5950 0.0027
6 7 3 1.7591 -0.0012
6 7 5 2.4275 -0.0002
6 7 7 -0.6247 -0.0006
6 8 0 -17.4620 0.0015
6 8 2 0.7342 0.0008
6 8 4 1.1933 -0.0002
6 8 6 -0.2206 -0.0001
6 8 8 -1.4796 -0.0004
6 9 1 5.1491 0.0022
6 9 3 -0.5803 0.0020
6 9 5 -1.2258 0.0000
6 9 7 -2.4026 0.0004
6 10 0 18.5833 -0.0008
6 10 2 -2.4178 0.0001
6 10 4 2.0863 0.0003
6 10 6 -0.6558 -0.0004
6 10 8 -3.2885 0.0005
6 11 1 13.0569 -0.0022
6 11 3 -0.5506 0.0004
6 11 5 -1.4294 -0.0000
6 11 7 0.2925 0.0002
6 12 0 24.0504 -0.0005
6 12 2 1.0538 -0.0002
6 12 4 -0.6724 -0.0003
6 12 6 -0.6412 0.0005
6 13 1 3.6996 0.0028
6 13 3 -0.1524 -0.0013
6 13 5 -0.3868 -0.0001
6 13 7 0.9407 -0.0005
6 14 0 12.7904 0.0008
6 14 2 3.5602 -0.0002
6 14 4 -1.8079 -0.0001
6 14 6 0.2034 0.0005
6 15 1 -1.8823 -0.0001
6 15 3 0.2774 0.0008
6 15 5 -0.9093 -0.0002
6 15 7 -2.1709 0.0009
6 16 0 5.0069 0.0002
6 16 2 2.0362 -0.0006
6 16 4 1.0612 0.0001
6 16 6 3.6222 -0.0002
6 17 1 0.6453 0.0001
6 17 3 0.1337 -0.0005
6 17 5 1.3201 -0.0006
6 17 7 -0.4158 -0.0007
6 18 0 -2.1703 0.0004
6 18 2 0.6138 0.0012
6 18 4 1.3291 -0.0005
6 18 6 1.9881 0.0008
6 19 1 3.7180 -0.0008
6 19 3 0.6297 0.0003
6 19 5 2.8061 0.0002
6 20 0 -3.3291 -0.0030
6 20 2 1.1910 -0.0003
6 20 4 -0.2983 0.0000
6 21 1 0.4368 -0.0013
6 21 3 -0.7605 0.0002
6 21 5 2.2325 0.0007
6 22 0 -5.7938 -0.0002
6 22 2 0.7757 -0.0016
6 22 4 1.0629 0.0003
6 23 1 -1.2144 0.0022
6 23 3 -4.6218 -0.0004
6 23 5 1.6086 -0.0015
6 24 0 -8.8711 0.0030
6 24 2 -1.3036 0.0009
6 24 4 -3.5501 -0.0004
6 25 1 1.9880 -0.0004
6 25 3 0.1279 0.0003
6 26 0 -5.3699 0.0006
6 26 2 -1.7072 -0.0005
6 26 4 -8.0973 0.0006
6 27 1 1.7976 -0.0008
6 27 3 6.9530 -0.0009
6 28 0 1.3137 -0.0006
6 28 2 0.8308 -0.0006
6 29 1 0.7153 -0.0007
6 30 0 5.4553 -0.0004
7 1 2 -5.6353 0.0018
7 1 4 0.7333 0.0001
7 1 6 1.8428 -0.0001
7 1 8 5.5414 0.0001
7 2 1 23.7357 -0.0055
7 2 3 -4.0534 -0.0008
7 2 5 -0.0191 -0.0001
7 2 7 4.4250 -0.0002
7 3 2 -1.3172 -0.0007
7 3 4 0.9074 0.0002
7 3 6 1.1289 -0.0001
7 3 8 1.9802 -0.0001
7 4 1 4.3965 -0.0078
7 4 3 2.4793 0.0003
7 4 5 0.6296 0.0005
7 4 7 5.9608 -0.0000
7 5 2 -11.4802 -0.0002
7 5 4 2.1240 0.0006
7 5 6 -1.5963 0.0000
7 5 8 -1.1854 0.0001
7 6 1 -18.9646 -0.0005
7 6 3 4.7963 -0.0011
7 6 5 -0.8657 -0.0001
7 6 7 -0.4229 0.0001
7 7 2 -15.6041 0.0020
7 7 4 -0.7321 0.0006
7 7 6 1.4284 0.0000
7 7 8 -1.7122 -0.0001
7 8 1 -4.7375 0.0015
7 8 3 1.2389 0.0007
7 8 5 0.1149 -0.0004
7 8 7 -2.3608 -0.0006
7 9 2 -9.7264 -0.0013
7 9 4 -2.4001 -0.0002
7 9 6 0.7120 -0.0000
7 9 8 -1.5727 0.0001
7 10 1 7.9086 -0.0018
7 10 3 -0.9342 -0.0005
7 10 5 0.8369 -0.0000
7 10 7 -1.0281 0.0002
7 11 2 -4.6969 0.0009
7 11 4 1.3543 0.0001
7 11 6 -2.6208 -0.0004
7 11 8 -3.0466 0.0010
7 12 1 3.6879 0.0019
7 12 3 2.0845 -0.0002
7 12 5 1.2206 -0.0005
7 12 7 -4.9334 0.0003
7 13 2 -1.0475 0.0022
7 13 4 0.6921 0.0002
7 13 6 -2.8348 -0.0002
7 14 1 2.9020 -0.0000
7 14 3 1.9074 0.0015
7 14 5 -0.0497 0.0003
7 14 7 0.3269 -0.0006
7 15 2 -2.4181 -0.0007
7 15 4 -1.3894 0.0000
7 15 6 0.3699 0.0001
7 16 1 0.4495 -0.0019
7 16 3 -2.3475 -0.0019
7 16 5 -3.4499 0.0002
7 16 7 8.1785 0.0001
7 17 2 -2.3739 -0.0008
7 17 4 0.8541 0.0001
7 17 6 1.0893 0.0002
7 18 1 -0.2010 -0.0006
7 18 3 -1.7892 0.0001
7 18 5 0.3497 -0.0004
7 19 2 -0.7950 0.0005
7 19 4 0.5884 -0.0005
7 19 6 -1.6101 -0.0000
7 20 1 1.6285 0.0008
7 20 3 1.8194 0.0007
7 20 5 3.8696 0.0008
7 21 2 -2.2476 0.0009
7 21 4 -0.5547 0.0007
7 22 1 -0.8664 0.0017
7 22 3 2.0620 -0.0007
7 22 5 -1.7655 -0.0002
7 23 2 0.4688 0.0002
7 23 4 0.6086 0.0004
7 24 1 0.2987 -0.0018
7 24 3 0.1549 0.0006
7 25 2 -1.1352 -0.0005
7 25 4 0.5417 -0.0007
7 26 1 -1.4465 -0.0022
7 26 3 1.7629 -0.0004
7 27 2 -7.3746 0.0008
7 28 1 -5.1504 -0.0012
7 29 2 -5.4352 0.0012
8 1 1 13.6886 -0.0022
8 1 3 -4.8993 0.0001
8 1 5 0.9052 0.0003
8 1 7 -0.6808 0.0002
8 2 0 12.9818 0.0078
8 2 2 -7.2211 -0.0016
8 2 4 0.6362 0.0001
8 2 6 -0.0556 0.0002
8 2 8 -1.5988 0.0001
8 3 1 5.1415 -0.0015
8 3 3 -3.5338 -0.0010
8 3 5 0.4319 0.0002
8 3 7 0.3783 0.0001
8 4 0 15.3039 -0.0064
8 4 2 -8.8799 0.0004
8 4 4 1.6430 -0.0003
8 4 6 -1.6395 0.0001
8 4 8 -0.4241 -0.0003
8 5 1 -5.2721 -0.0023
8 5 3 -3.3402 0.0009
8 5 5 -1.8710 -0.0001
8 5 7 -0.5567 0.0002
8 6 0 7.5918 -0.0059
8 6 2 -6.2228 -0.0012
8 6 4 0.2333 0.0002
8 6 6 -0.6007 -0.0002
8 6 8 4.4051 0.0003
8 7 1 -6.8195 -0.0014
8 7 3 0.5590 0.0009
8 7 5 -2.3659 0.0001
8 7 7 -1.5522 -0.0002
8 8 0 -4.1205 -0.0012
8 8 2 -5.3824 -0.0013
8 8 4 -1.6111 -0.0001
8 8 6 -0.8481 0.0000
8 8 8 4.3016 0.0002
8 9 1 -11.5233 0.0033
8 9 3 3.8294 -0.0005
8 9 5 -0.7464 -0.0000
8 9 7 0.0336 0.0001
8 10 0 -14.3361 0.0010
8 10 2 -5.6086 0.0016
8 10 4 -0.6086 0.0002
8 10 6 0.9287 0.0000
8 10 8 0.3815 -0.0017
8 11 1 -8.5755 -0.0011
8 11 3 2.5773 0.0015
8 11 5 -0.5539 -0.0000
8 11 7 0.5440 0.0004
8 12 0 -7.2564 -0.0002
8 12 2 -1.0393 -0.0005
8 12 4 1.0375 0.0004
8 12 6 2.8803 -0.0005
8 13 1 1.3153 -0.0001
8 13 3 -1.9101 -0.0001
8 13 5 0.9547 -0.0002
8 13 7 5.9522 -0.0003
8 14 0 -0.1193 -0.0007
8 14 2 2.2235 -0.0001
8 14 4 1.2344 -0.0007
8 14 6 2.5901 0.0005
8 15 1 2.0197 0.0021
8 15 3 -4.3314 -0.0012
8 15 5 0.5772 -0.0006
8 15 7 6.5177 0.0001
8 16 0 -0.9214 0.0022
8 16 2 -1.9857 0.0006
8 16 4 0.7025 0.0002
8 16 6 5.6354 0.0005
8 17 1 0.2775 -0.0018
8 17 3 1.0098 0.0011
8 17 5 -2.9637 -0.0002
8 18 0 2.2584 -0.0008
8 18 2 -3.4982 -0.0005
8 18 4 0.1997 0.0002
8 18 6 4.5235 -0.0006
8 19 1 -0.4536 0.0001
8 19 3 3.1688 -0.0000
8 19 5 -0.9329 0.0003
8 20 0 2.7096 -0.0019
8 20 2 2.3329 0.0004
8 20 4 0.3876 -0.0004
8 21 1 -1.0118 -0.0006
8 21 3 2.1789 -0.0003
8 21 5 -2.2788 0.0000
8 22 0 3.0658 0.0013
8 22 2 2.7546 -0.0007
8 22 4 0.8854 -0.0000
8 23 1 0.8612 0.0004
8 23 3 3.5108 0.0000
8 23 5 -7.1445 0.0004
8 24 0 4.3838 0.0021
8 24 2 -2.3346 -0.0007
8 24 4 2.9085 0.0003
8 25 1 3.0716 0.0009
8 25 3 -4.2420 -0.0001
8 26 0 1.4382 0.0018
8 26 2 0.4935 0.0007
8 26 4 1.7385 0.0016
8 27 1 -0.1874 -0.0025
8 27 3 -11.9060 0.0009
8 28 0 -1.0561 -0.0009
8 28 2 3.8935 -0.0003
8 29 1 -4.8316 -0.0003
9 1 2 2.4282 -0.0009
9 1 4 -0.0758 -0.0003
9 1 6 -4.6567 0.0002
9 1 8 -5.5864 -0.0004
9 2 1 14.8764 -0.0040
9 2 3 -0.0417 -0.0010
9 2 5 0.0410 -0.0001
9 2 7 -2.7191 -0.0002
9 3 2 0.4987 0.0018
9 3 4 -1.8709 0.0004
9 3 6 -2.4248 -0.0002
9 3 8 -0.8143 0.0000
9 4 1 28.2425 -0.0029
9 4 3 1.0890 -0.0005
9 4 5 -1.7388 0.0005
9 4 7 -6.3176 -0.0001
9 5 2 -0.1095 -0.0008
9 5 4 -2.5796 0.0012
9 5 6 3.3356 0.0002
9 5 8 2.5392 0.0000
9 6 1 18.8205 -0.0025
9 6 3 0.9765 -0.0001
9 6 5 0.9835 0.0001
9 6 7 -1.1746 -0.0003
9 7 2 -2.4323 -0.0007
9 7 4 -0.0422 -0.0004
9 7 6 1.1689 0.0001
9 7 8 -0.0818 0.0010
9 8 1 -5.4996 -0.0004
9 8 3 1.9019 -0.0007
9 8 5 0.7258 -0.0006
9 8 7 4.7722 0.0003
9 9 2 -3.2383 0.0015
9 9 4 1.6032 0.0006
9 9 6 -1.3597 -0.0004
9 9 8 -1.7378 0.0007
9 10 1 -14.7876 -0.0007
9 10 3 2.4343 0.0003
9 10 5 -1.0365 0.0000
9 10 7 0.6446 0.0002
9 11 2 -0.0488 -0.0005
9 11 4 0.9593 0.0004
9 11 6 -1.3951 -0.0000
9 12 1 -8.7162 -0.0003
9 12 3 -0.6912 0.0003
9 12 5 0.4825 0.0001
9 12 7 3.8373 -0.0000
9 13 2 0.3210 0.0007
9 13 4 -0.7942 -0.0001
9 13 6 -2.4401 -0.0006
9 14 1 -5.0258 0.0005
9 14 3 -2.1316 -0.0002
9 14 5 0.8256 -0.0006
9 14 7 6.6875 0.0001
9 15 2 0.9445 0.0005
9 15 4 -2.4607 0.0008
9 15 6 -2.9962 0.0002
9 16 1 -0.2411 -0.0020
9 16 3 -0.6912 -0.0003
9 16 5 0.7210 0.0006
9 17 2 0.0188 -0.0008
9 17 4 -0.1233 -0.0004
9 17 6 -3.1803 0.0005
9 18 1 0.6867 0.0002
9 18 3 -1.1917 -0.0010
9 18 5 2.2078 0.0002
9 19 2 -0.4732 0.0005
9 19 4 3.2952 0.0002
9 19 6 -5.0804 -0.0008
9 20 1 -1.4613 0.0017
9 20 3 -5.1379 0.0007
9 20 5 -2.1476 -0.0009
9 21 2 2.5690 0.0004
9 21 4 3.1217 0.0002
9 22 1 2.5686 0.0001
9 22 3 -5.7218 0.0004
9 22 5 -6.5161 0.0013
9 23 2 -0.3074 0.0000
9 23 4 6.7893 -0.0000
9 24 1 0.8197 -0.0006
9 24 3 2.1656 -0.0003
9 25 2 1.8332 0.0002
9 25 4 9.8758 0.0004
9 26 1 -2.6732 -0.0016
9 26 3 5.2753 -0.0010
9 27 2 8.8102 -0.0014
9 28 1 0.7658 -0.0008
10 1 1 -1.6050 -0.0013
10 1 3 3.2527 0.0002
10 1 5 -0.1209 0.0003
10 1 7 -1.8579 0.0001
10 2 0 -2.6795 0.0080
10 2 2 4.1671 -0.0002
10 2 4 -1.5450 -0.0001
10 2 6 1.4753 0.0000
10 2 8 1.8054 -0.0001
10 3 1 4.2103 -0.0023
10 3 3 3.4597 -0.0007
10 3 5 -1.8446 0.0004
10 3 7 -2.5439 0.0002
10 4 0 8.1456 0.0004
10 4 2 6.0086 -0.0013
10 4 4 -0.7157 -0.0005
10 4 6 1.7974 0.0001
10 4 8 -0.2116 0.0001
10 5 1 12.2320 0.0006
10 5 3 -0.6724 -0.0004
10 5 5 0.3075 -0.0001
10 5 7 -1.5070 -0.0005
10 6 0 9.9935 -0.0077
10 6 2 4.8284 -0.0006
10 6 4 0.9020 0.0001
10 6 6 -1.8957 0.0000
10 6 8 -0.1484 0.0006
10 7 1 9.9813 -0.0006
10 7 3 -2.6652 0.0014
10 7 5 1.7132 0.0000
10 7 7 -1.0934 0.0004
10 8 0 6.8160 0.0005
10 8 2 5.2229 -0.0014
10 8 4 1.3469 0.0008
10 8 6 0.1035 0.0000
10 8 8 -2.5591 0.0015
10 9 1 8.5415 -0.0009
10 9 3 -1.7795 0.0000
10 9 5 0.1021 0.0003
10 9 7 1.9797 -0.0001
10 10 0 2.6904 -0.0004
10 10 2 4.3356 -0.0000
10 10 4 -0.0017 -0.0005
10 10 6 0.9707 0.0000
10 11 1 2.3609 0.0015
10 11 3 -2.8341 -0.0004
10 11 5 1.8016 -0.0001
10 11 7 1.7766 -0.0004
10 12 0 1.8371 -0.0010
10 12 2 -2.1716 0.0010
10 12 4 0.0145 0.0000
10 12 6 -2.6778 -0.0004
10 13 1 -1.7951 -0.0010
10 13 3 -0.6960 0.0010
10 13 5 -0.6021 -0.0004
10 13 7 -9.5703 0.0006
10 14 0 -0.6663 0.0024
10 14 2 -6.0312 -0.0002
10 14 4 2.7780 0.0004
10 14 6 -4.2008 -0.0006
10 15 1 2.7382 0.0001
10 15 3 2.1258 0.0002
10 15 5 -2.2768 -0.0003
10 16 0 -5.3438 -0.0009
10 16 2 -2.5633 0.0006
10 16 4 1.4965 -0.0007
10 16 6 -8.0857 0.0006
10 17 1 2.1933 0.0006
10 17 3 -1.5204 -0.0004
10 17 5 0.5619 0.0003
10 18 0 -3.9141 0.0005
10 18 2 2.6032 -0.0003
10 18 4 -1.1339 0.0007
10 18 6 -7.5399 0.0006
10 19 1 -0.4312 -0.0011
10 19 3 -1.5671 0.0004
10 19 5 -1.2971 -0.0004
10 20 0 -0.0434 -0.0003
10 20 2 2.7366 -0.0002
10 20 4 -0.4429 -0.0001
10 20 6 -0.1736 -0.0009
10 21 1 -0.1924 0.0010
10 21 3 0.1505 0.0001
10 21 5 4.0488 0.0002
10 22 0 -1.7239 -0.0000
10 22 2 0.2993 0.0004
10 22 4 -0.4306 -0.0008
10 23 1 -0.7733 -0.0010
10 23 3 0.7361 -0.0003
10 24 0 1.9275 0.0029
10 24 2 2.1740 -0.0008
10 24 4 -1.3576 0.0013
10 25 1 -1.8324 -0.0005
10 25 3 5.3935 0.0004
10 26 0 3.5948 0.0003
10 26 2 0.9787 0.0001
10 27 1 1.2957 0.0003
10 27 3 5.7116 0.0018
10 28 0 -4.6524 -0.0012
10 29 1 6.4519 -0.0016
11 1 2 1.7743 -0.0014
11 1 4 1.6169 0.0003
11 1 6 1.1781 -0.0004
11 1 8 -6.2815 -0.0007
11 2 1 3.9870 -0.0007
11 2 3 4.1059 -0.0013
11 2 5 -0.2071 0.0005
11 2 7 3.1117 -0.0001
11 3 2 -2.3525 0.0006
11 3 4 1.0161 0.0002
11 3 6 2.7644 0.0004
11 3 8 -4.7447 -0.0006
11 4 1 -3.4551 0.0005
11 4 3 -0.2311 0.0001
11 4 5 1.5327 -0.0002
11 4 7 7.3946 -0.0002
11 5 2 0.0422 0.0006
11 5 4 0.0805 0.0004
11 5 6 -2.0937 0.0000
11 5 8 -1.0907 0.0011
11 6 1 3.5849 -0.0015
11 6 3 -2.7686 -0.0006
11 6 5 -1.0808 0.0003
11 6 7 4.6074 -0.0003
11 7 2 5.3731 -0.0023
11 7 4 -1.3849 0.0005
11 7 6 0.1622 -0.0000
11 8 1 12.5677 -0.0029
11 8 3 -1.6412 -0.0007
11 8 5 -2.0185 -0.0002
11 8 7 0.5208 0.0008
11 9 2 7.1079 0.0003
11 9 4 -2.0650 -0.0003
11 9 6 5.6465 -0.0000
11 10 1 10.4495 -0.0003
11 10 3 -0.8541 0.0007
11 10 5 0.3932 -0.0003
11 10 7 4.9312 0.0001
11 11 2 1.2713 0.0011
11 11 4 -1.6073 0.0012
11 11 6 3.3613 -0.0005
11 12 1 3.6093 -0.0003
11 12 3 -3.0372 0.0001
11 12 5 -1.6227 0.0002
11 12 7 6.5569 -0.0004
11 13 2 -0.1364 -0.0013
11 13 4 1.2007 0.0004
11 13 6 -0.2356 0.0004
11 14 1 2.6811 -0.0010
11 14 3 -3.9999 -0.0006
11 14 5 -4.9293 -0.0002
11 15 2 2.9002 0.0005
11 15 4 4.5623 -0.0004
11 15 6 2.0219 -0.0003
11 16 1 0.3069 0.0003
11 16 3 -0.5462 0.0001
11 16 5 -1.3544 -0.0001
11 17 2 6.6297 0.0007
11 17 4 2.5594 0.0010
11 17 6 2.7764 -0.0003
11 18 1 -2.3439 -0.0002
11 18 3 0.0979 -0.0001
11 18 5 -0.5619 0.0004
11 19 2 5.6769 -0.0001
11 19 4 0.0978 -0.0002
11 20 1 -0.1338 0.0011
11 20 3 -1.8482 -0.0003
11 20 5 -2.0876 -0.0001
11 21 2 -1.9783 -0.0007
11 21 4 2.3110 -0.0000
11 22 1 -1.1422 0.0002
11 22 3 0.1320 0.0006
11 22 5 1.6784 -0.0006
11 23 2 -0.4219 -0.0002
11 23 4 -0.5095 0.0001
11 24 1 -1.4830 -0.0012
11 24 3 -0.8381 -0.0003
11 25 2 1.9762 0.0005
11 26 1 1.1546 0.0013
11 26 3 -4.5704 0.0000
11 28 1 0.0901 0.0016
12 1 1 8.0281 -0.0013
12 1 3 0.6504 -0.0004
12 1 5 0.1841 0.0003
12 1 7 2.2167 0.0003
12 2 0 -20.6904 0.0009
12 2 2 -0.9356 -0.0001
12 2 4 1.0650 -0.0004
12 2 6 -0.9859 0.0001
12 2 8 -1.7543 -0.0015
12 3 1 3.2060 0.0009
12 3 3 0.8703 -0.0001
12 3 5 -0.4540 0.0001
12 3 7 2.6906 -0.0009
12 4 0 2.4719 0.0027
12 4 2 -1.6338 -0.0010
12 4 4 -2.0861 -0.0002
12 4 6 1.8910 -0.0001
12 4 8 -4.3962 0.0013
12 5 1 -2.1229 0.0013
12 5 3 1.0416 -0.0007
12 5 5 -2.3679 0.0002
12 5 7 1.8037 0.0003
12 6 0 7.8150 -0.0008
12 6 2 -1.1334 -0.0013
12 6 4 -1.0449 -0.0001
12 6 6 2.7127 0.0002
12 7 1 -3.8349 -0.0007
12 7 3 -1.8331 0.0001
12 7 5 -0.8228 -0.0000
12 7 7 0.1113 0.0002
12 8 0 4.2442 -0.0042
12 8 2 -1.9617 -0.0006
12 8 4 -1.8311 0.0004
12 8 6 1.7408 0.0002
12 9 1 -1.9917 -0.0013
12 9 3 -3.9313 0.0008
12 9 5 1.3476 0.0006
12 9 7 -2.6284 -0.0005
12 10 0 7.9766 0.0013
12 10 2 -0.2371 -0.0011
12 10 4 -1.5518 0.0001
12 10 6 -1.5347 -0.0001
12 11 1 2.5945 0.0001
12 11 3 -1.7152 -0.0008
12 11 5 -0.5821 -0.0001
12 11 7 -3.2126 -0.0001
12 12 0 0.1038 -0.0005
12 12 2 3.2634 0.0007
12 12 4 0.5111 -0.0007
12 12 6 -4.1572 -0.0005
12 13 1 -0.2928 0.0001
12 13 3 -1.0421 0.0005
12 13 5 1.7639 -0.0005
12 14 0 -2.7573 0.0003
12 14 2 3.8805 0.0008
12 14 4 -0.6663 0.0005
12 14 6 -0.7802 -0.0009
12 15 1 -3.9109 -0.0007
12 15 3 -0.7732 0.0013
12 15 5 0.5673 0.0007
12 16 0 4.9374 0.0017
12 16 2 4.5808 -0.0003
12 16 4 -2.3291 0.0009
12 16 6 3.8602 -0.0003
12 17 1 -2.1910 0.0003
12 17 3 1.3396 -0.0003
12 17 5 -3.4456 -0.0002
12 18 0 0.0023 -0.0019
12 18 2 0.5776 0.0002
12 18 4 -2.5262 -0.0009
12 19 1 -1.5838 0.0007
12 19 3 -0.4291 -0.0005
12 19 5 1.2704 0.0000
12 20 0 -6.4651 0.0011
12 20 2 -5.5145 -0.0004
12 20 4 0.8919 0.0001
12 21 1 1.5681 -0.0003
12 21 3 1.7801 0.0001
12 21 5 0.0509 -0.0002
12 22 0 -0.5356 0.0009
12 22 2 -1.0258 0.0006
12 22 4 2.8022 0.0010
12 23 1 -0.2864 -0.0007
12 23 3 4.2827 0.0008
12 24 0 -0.7704 0.0005
12 24 2 0.7326 0.0004
12 24 4 0.1287 -0.0004
12 25 1 -7.2497 -0.0011
12 25 3 1.1118 0.0004
12 26 0 -1.5438 0.0006
12 26 2 -4.8014 -0.0007
12 27 1 -4.9284 0.0010
12 28 0 4.6461 -0.0026
13 1 2 -1.2869 0.0000
13 1 4 -1.4506 0.0001
13 1 6 2.1686 0.0000
13 2 1 -19.8931 0.0031
13 2 3 -2.0671 -0.0001
13 2 5 1.2632 0.0007
13 2 7 -6.5145 -0.0003
13 3 2 2.7312 -0.0008
13 3 4 0.2717 0.0004
13 3 6 1.0793 0.0002
13 3 8 8.8942 -0.0002
13 4 1 -14.9874 0.0024
13 4 3 0.0817 -0.0009
13 4 5 -1.7015 -0.0000
13 4 7 -9.1493 -0.0001
13 5 2 5.0638 -0.0009
13 5 4 -0.3217 -0.0007
13 5 6 1.9126 0.0001
13 6 1 -10.5897 -0.0011
13 6 3 3.4271 0.0002
13 6 5 -0.2756 -0.0006
13 6 7 -4.5627 0.0004
13 7 2 0.0405 -0.0004
13 7 4 0.6748 0.0003
13 7 6 1.6984 0.0001
13 8 1 -7.7496 -0.0020
13 8 3 -0.2731 -0.0004
13 8 5 2.2638 0.0009
13 8 7 0.0744 -0.0003
13 9 2 -1.9013 -0.0015
13 9 4 0.9088 0.0005
13 9 6 -0.8139 -0.0001
13 10 1 -4.0551 -0.0011
13 10 3 -2.4074 -0.0002
13 10 5 2.4197 -0.0004
13 10 7 -1.3349 0.0005
13 11 2 3.7357 0.0004
13 11 4 -1.3477 -0.0000
13 11 6 0.1395 -0.0001
13 12 1 -0.9907 -0.0003
13 12 3 0.9277 0.0004
13 12 5 1.0296 -0.0002
13 13 2 1.6217 -0.0002
13 13 4 -1.6100 0.0009
13 13 6 0.2043 0.0005
13 14 1 0.8023 -0.0005
13 14 3 2.9485 -0.0005
13 14 5 1.8695 0.0006
13 15 2 -2.2150 -0.0005
13 15 4 -1.8077 -0.0002
13 15 6 -7.1231 -0.0002
13 16 1 2.4275 0.0002
13 16 3 1.6352 0.0003
13 16 5 -0.7758 -0.0007
13 17 2 -3.9174 0.0013
13 17 4 -2.5546 -0.0001
13 18 1 3.4815 0.0013
13 18 3 -1.3220 0.0005
13 18 5 -3.1519 0.0003
13 19 2 -2.5137 -0.0005
13 19 4 -3.3815 0.0007
13 20 1 3.2217 -0.0010
13 20 3 2.2395 -0.0002
13 20 5 2.1930 0.0003
13 21 2 4.4323 -0.0006
13 21 4 -4.0535 -0.0005
13 22 1 2.6646 -0.0003
13 22 3 8.0515 -0.0008
13 23 2 0.2821 -0.0007
13 23 4 -1.9917 -0.0000
13 24 1 0.4810 0.0012
13 24 3 3.9205 -0.0000
13 25 2 -5.2741 -0.0001
13 26 1 -1.1250 -0.0000
13 26 3 -1.0939 0.0017
14 1 1 -5.3965 0.0003
14 1 3 0.9076 -0.0003
14 1 5 -1.8495 0.0002
14 1 7 -1.2215 -0.0001
14 2 0 17.2956 -0.0012
14 2 2 3.0910 -0.0001
14 2 4 0.1251 -0.0007
14 2 6 1.6061 -0.0001
14 3 1 -2.3810 0.0016
14 3 3 -0.9823 -0.0007
14 3 5 0.0890 -0.0002
14 3 7 -2.8685 -0.0004
14 4 0 -6.4583 0.0004
14 4 2 1.9536 -0.0012
14 4 4 3.9480 -0.0001
14 4 6 -1.3704 -0.0001
14 5 1 -1.4845 0.0019
14 5 3 0.0238 0.0000
14 5 5 1.3919 0.0003
14 5 7 1.0425 -0.0003
14 6 0 -13.2778 0.0035
14 6 2 -1.1154 -0.0007
14 6 4 3.5523 0.0001
14 6 6 -0.2928 0.0004
14 7 1 -0.5339 -0.0001
14 7 3 0.0679 -0.0006
14 7 5 1.2090 0.0007
14 7 7 6.1257 0.0001
14 8 0 -9.4901 -0.0019
14 8 2 -1.4149 -0.0005
14 8 4 2.5301 -0.0004
14 8 6 -0.6201 0.0001
14 9 1 -2.6836 -0.0020
14 9 3 2.7171 -0.0003
14 9 5 1.4119 -0.0002
14 9 7 2.0588 0.0001
14 10 0 -7.2075 -0.0028
14 10 2 -0.4863 -0.0011
14 10 4 2.6024 0.0003
14 10 6 0.1826 -0.0001
14 11 1 -1.5470 -0.0000
14 11 3 4.1472 0.0005
14 11 5 0.3096 0.0005
14 11 7 1.1874 -0.0013
14 12 0 1.1827 0.0019
14 12 2 0.2631 -0.0004
14 12 4 2.5465 -0.0002
14 12 6 4.0087 -0.0004
14 13 1 3.0027 0.0002
14 13 3 1.5064 -0.0000
14 13 5 -2.1474 0.0005
14 14 0 3.0045 -0.0003
14 14 2 -1.1692 0.0010
14 14 4 -0.4915 0.0001
14 14 6 0.6899 -0.0011
14 15 1 0.0690 -0.0010
14 15 3 -0.5937 0.0007
14 15 5 0.6922 0.0001
14 16 0 -1.5950 -0.0001
14 16 2 -3.4916 -0.0001
14 16 4 -0.7211 0.0007
14 17 1 -1.8875 0.0004
14 17 3 -1.8991 0.0006
14 17 5 2.7224 0.0010
14 18 0 0.7651 0.0002
14 18 2 -0.1420 -0.0005
14 18 4 1.4038 -0.0001
14 19 1 1.6164 0.0008
14 19 3 -0.2044 -0.0006
14 19 5 -3.3650 -0.0005
14 20 0 4.0431 -0.0006
14 20 2 4.2242 0.0003
14 20 4 -6.3800 -0.0002
14 21 1 -1.9890 -0.0002
14 21 3 -3.0940 -0.0004
14 22 0 1.5220 0.0019
14 22 2 0.3807 0.0002
14 22 4 -8.3261 0.0001
14 23 1 -2.7686 -0.0010
14 23 3 -5.3601 0.0013
14 24 0 2.1321 -0.0009
14 24 2 -0.0775 0.0009
14 25 1 3.5616 -0.0004
14 25 3 0.4234 0.0013
14 26 2 5.1407 0.0004
14 27 1 2.4133 0.0006
15 1 2 1.7240 -0.0005
15 1 4 1.1442 -0.0006
15 1 6 1.4755 0.0002
15 2 1 9.9634 0.0042
15 2 3 -1.6383 0.0006
15 2 5 0.3722 -0.0004
15 2 7 -0.9342 0.0001
15 3 2 -0.5699 -0.0010
15 3 4 -0.2818 -0.0001
15 3 6 0.4034 -0.0003
15 4 1 8.4177 0.0031
15 4 3 -1.5781 -0.0003
15 4 5 2.8505 0.0002
15 4 7 4.0482 0.0002
15 5 2 -3.1133 -0.0014
15 5 4 3.4666 -0.0005
15 5 6 -2.9693 0.0005
15 6 1 3.4358 0.0003
15 6 3 -2.8474 -0.0005
15 6 5 -1.5459 0.0000
15 6 7 5.7434 0.0003
15 7 2 -0.4665 -0.0006
15 7 4 3.7757 -0.0005
15 7 6 -5.8747 -0.0001
15 8 1 -0.4789 -0.0016
15 8 3 0.3648 0.0007
15 8 5 -3.4012 -0.0001
15 8 7 -0.8208 -0.0004
15 9 2 -0.5760 -0.0001
15 9 4 2.2787 0.0007
15 9 6 -5.7743 -0.0000
15 10 1 -0.4749 -0.0003
15 10 3 -0.6540 -0.0008
15 10 5 -3.5427 0.0009
15 10 7 -6.3733 -0.0008
15 11 2 -2.2395 -0.0013
15 11 4 1.6611 0.0000
15 11 6 -1.7348 0.0009
15 12 1 0.0847 -0.0007
15 12 3 -1.1681 -0.0003
15 12 5 -1.4657 -0.0005
15 13 2 0.6331 -0.0001
15 13 4 0.1870 -0.0003
15 13 6 5.1669 0.0001
15 14 1 -2.7732 -0.0003
15 14 3 -0.0323 0.0008
15 14 5 2.3298 0.0001
15 15 2 -0.9199 0.0004
15 15 4 -0.5017 0.0004
15 16 1 -3.5022 0.0014
15 16 3 -1.8975 0.0000
15 16 5 2.9356 0.0007
15 17 2 -1.1633 -0.0003
15 17 4 0.7986 -0.0003
15 18 1 -0.9597 0.0003
15 18 3 2.3074 0.0007
15 18 5 0.0753 -0.0007
15 19 2 -0.6292 0.0002
15 19 4 4.4642 -0.0000
15 20 1 -1.2722 -0.0005
15 20 3 0.3774 -0.0002
15 20 5 -2.2935 0.0010
15 21 2 -4.6047 -0.0008
15 21 4 2.9831 0.0003
15 22 1 -2.0852 -0.0012
15 22 3 -9.9454 -0.0010
15 23 2 1.1816 -0.0002
15 24 1 1.2516 0.0013
15 24 3 -5.4396 -0.0005
15 25 2 6.5648 -0.0005
15 26 1 2.7354 0.0031
16 1 1 -1.8694 0.0007
16 1 3 -1.0832 -0.0003
16 1 5 3.9381 -0.0005
16 1 7 -2.9212 -0.0006
16 2 0 -2.2966 -0.0020
16 2 2 -1.4319 0.0005
16 2 4 -0.1513 0.0003
16 2 6 -1.6928 -0.0005
16 3 1 -4.3175 0.0019
16 3 3 -1.5919 -0.0006
16 3 5 5.0410 -0.0001
16 3 7 2.0171 0.0012
16 4 0 -0.3228 0.0010
16 4 2 -2.2144 -0.0007
16 4 4 -2.7364 -0.0004
16 4 6 1.5724 0.0003
16 5 1 -1.7585 0.0005
16 5 3 -1.9450 -0.0002
16 5 5 4.2581 0.0002
16 5 7 4.6569 -0.0010
16 6 0 5.0837 0.0027
16 6 2 -0.2007 -0.0002
16 6 4 -3.8168 -0.0000
16 6 6 -0.0326 0.0001
16 7 1 3.1860 0.0008
16 7 3 1.6543 -0.0004
16 7 5 0.3285 0.0005
16 7 7 -0.1475 -0.0011
16 8 0 5.5647 0.0012
16 8 2 2.8220 -0.0001
16 8 4 -0.5124 -0.0003
16 8 6 -5.0008 0.0002
16 9 1 3.0098 -0.0007
16 9 3 -0.7534 -0.0007
16 9 5 -1.1993 0.0000
16 10 0 0.6993 -0.0026
16 10 2 0.6448 -0.0007
16 10 4 -2.1701 -0.0004
16 10 6 -1.2879 -0.0005
16 11 1 -1.4080 -0.0014
16 11 3 -1.3608 -0.0001
16 11 5 0.2055 0.0001
16 12 0 -1.5820 -0.0003
16 12 2 -4.5327 -0.0009
16 12 4 -3.8452 0.0009
16 12 6 2.9006 0.0003
16 13 1 -1.8857 0.0008
16 13 3 4.0144 0.0003
16 13 5 0.4843 0.0014
16 14 0 -0.3003 0.0010
16 14 2 -2.1949 0.0001
16 14 4 1.3571 -0.0002
16 14 6 2.6409 -0.0003
16 15 1 0.3796 -0.0004
16 15 3 2.8652 0.0002
16 15 5 0.9904 0.0005
16 16 0 -0.2210 -0.0015
16 16 2 1.5721 0.0003
16 16 4 2.3342 -0.0003
16 17 1 -0.3282 -0.0006
16 17 3 0.6955 -0.0000
16 17 5 2.2707 0.0002
16 18 0 -1.4269 0.0004
16 18 2 2.0045 -0.0006
16 18 4 -0.1680 0.0006
16 19 1 -2.5738 0.0010
16 19 3 -1.1017 0.0002
16 19 5 4.2562 0.0017
16 20 0 -1.2693 0.0008
16 20 2 1.3739 -0.0003
16 20 4 6.6939 0.0004
16 21 1 -0.9563 -0.0000
16 21 3 0.6563 0.0005
16 22 0 1.5298 -0.0007
16 22 2 0.2235 0.0006
16 23 1 2.1542 -0.0006
16 23 3 4.0259 -0.0015
16 24 0 -0.1644 -0.0010
16 24 2 0.7012 0.0006
16 25 1 2.5519 -0.0010
17 1 2 -1.8453 -0.0002
17 1 4 -1.8574 -0.0006
17 1 6 -0.1844 -0.0000
17 2 1 -1.5865 0.0044
17 2 3 1.0683 0.0005
17 2 5 0.6306 -0.0001
17 2 7 5.7095 0.0007
17 3 2 -1.1327 -0.0014
17 3 4 -0.6915 -0.0008
17 3 6 -1.9345 -0.0000
17 4 1 -1.6890 0.0016
17 4 3 0.6125 0.0004
17 4 5 0.4332 -0.0003
17 4 7 2.3125 0.0007
17 5 2 0.3130 -0.0008
17 5 4 0.2736 -0.0004
17 5 6 1.1533 -0.0001
17 6 1 2.0638 0.0012
17 6 3 -0.0257 -0.0003
17 6 5 3.3269 0.0006
17 6 7 -5.8098 -0.0005
17 7 2 -0.6118 0.0004
17 7 4 1.0953 -0.0005
17 7 6 1.2801 0.0004
17 8 1 0.7958 0.0006
17 8 3 -0.1917 -0.0002
17 8 5 1.2605 -0.0002
17 9 2 -2.5861 -0.0005
17 9 4 0.3092 -0.0001
17 9 6 4.0632 0.0008
17 10 1 -2.1360 -0.0013
17 10 3 0.5481 0.0001
17 10 5 -0.6822 0.0003
17 11 2 -2.5031 -0.0006
17 11 4 2.9526 0.0001
17 11 6 4.5283 0.0011
17 12 1 1.9461 0.0002
17 12 3 0.1876 -0.0008
17 12 5 2.4360 0.0008
17 13 2 -2.3239 -0.0005
17 13 4 4.2371 -0.0005
17 13 6 -0.8252 -0.0005
17 14 1 4.7307 0.0003
17 14 3 1.2654 0.0004
17 14 5 -1.1334 -0.0009
17 15 2 -0.0921 -0.0001
17 15 4 2.6030 -0.0001
17 16 1 0.8159 0.0005
17 16 3 1.6912 0.0010
17 16 5 -4.1075 0.0003
17 17 2 1.0866 0.0001
17 17 4 1.4050 -0.0000
17 18 1 -2.3790 0.0009
17 18 3 1.6892 -0.0002
17 18 5 2.9978 0.0013
17 19 2 1.1045 -0.0002
17 19 4 -3.8691 -0.0002
17 20 1 -1.9100 -0.0010
17 20 3 9.3903 -0.0004
17 21 2 3.2330 0.0001
17 22 1 -1.5047 -0.0003
17 22 3 12.9240 0.0005
17 23 2 1.7579 -0.0007
17 24 1 -2.7177 -0.0001
18 1 1 3.4922 0.0004
18 1 3 1.3803 -0.0007
18 1 5 0.4089 -0.0010
18 1 7 5.4224 0.0003
18 2 0 -3.3006 -0.0011
18 2 2 -1.8367 0.0007
18 2 4 -2.1140 0.0003
18 2 6 -3.5503 -0.0004
18 3 1 4.1834 0.0001
18 3 3 4.7659 0.0001
18 3 5 -0.0373 -0.0002
18 3 7 1.3218 -0.0004
18 4 0 -0.6293 0.0014
18 4 2 -1.3064 0.0007
18 4 4 -0.6888 0.0004
18 4 6 -3.4975 0.0002
18 5 1 1.1133 0.0005
18 5 3 3.3210 -0.0004
18 5 5 -2.9496 0.0003
18 5 7 -6.1462 0.0033
18 6 0 -1.1034 0.0021
18 6 2 -2.0877 0.0004
18 6 4 -0.3111 -0.0007
18 6 6 -0.7742 0.0002
18 7 1 -2.3605 -0.0001
18 7 3 -1.6008 -0.0004
18 7 5 -0.7684 -0.0004
18 8 0 0.0134 0.0011
18 8 2 -2.2543 -0.0000
18 8 4 -2.5649 -0.0002
18 8 6 6.4456 -0.0001
18 9 1 0.3148 0.0010
18 9 3 -2.0680 -0.0007
18 9 5 3.2697 0.0006
18 10 0 0.7874 -0.0000
18 10 2 0.6655 0.0002
18 10 4 -1.8178 0.0001
18 11 1 0.9618 -0.0008
18 11 3 -1.7501 -0.0005
18 11 5 3.5776 0.0004
18 12 0 -1.0230 -0.0013
18 12 2 2.9928 -0.0008
18 12 4 -4.3600 0.0002
18 13 1 1.3456 -0.0010
18 13 3 -3.4174 -0.0001
18 13 5 -0.8492 0.0002
18 14 0 -0.2314 -0.0004
18 14 2 1.8213 -0.0009
18 14 4 -4.8443 0.0003
18 15 1 5.1719 0.0011
18 15 3 -0.1585 -0.0003
18 15 5 -3.8071 0.0014
18 16 0 1.9479 -0.0005
18 16 2 1.2550 0.0004
18 16 4 -0.7531 -0.0008
18 17 1 4.1960 -0.0008
18 17 3 -0.2307 0.0001
18 17 5 -0.4316 0.0005
18 18 0 5.0885 -0.0000
18 18 2 -3.2632 -0.0003
18 18 4 0.6826 0.0005
18 19 1 2.1939 -0.0004
18 19 3 -1.0391 0.0002
18 20 0 6.2140 0.0017
18 20 2 -6.5453 -0.0003
18 21 1 3.7838 0.0007
18 22 0 -0.7834 -0.0023
18 22 2 -2.6065 0.0003
18 23 1 4.0082 0.0011
18 24 2 -3.5632 0.0001
19 1 2 0.3229 -0.0005
19 1 4 2.3021 -0.0003
19 1 6 0.2019 -0.0001
19 2 1 1.5334 0.0019
19 2 3 -0.0298 0.0008
19 2 5 -1.3292 -0.0001
19 2 7 4.8668 -0.0005
19 3 2 3.4355 -0.0002
19 3 4 1.9360 -0.0012
19 3 6 -0.4550 0.0005
19 4 1 2.9522 0.0014
19 4 3 0.1127 0.0005
19 4 5 0.4933 0.0002
19 5 2 0.8498 -0.0001
19 5 4 -3.4230 -0.0003
19 5 6 2.6181 -0.0009
19 6 1 -0.5580 0.0006
19 6 3 1.0419 -0.0000
19 6 5 1.0493 -0.0001
19 7 2 1.2102 0.0007
19 7 4 -7.3624 -0.0001
19 7 6 7.8094 0.0007
19 8 1 0.6307 0.0015
19 8 3 -2.0096 -0.0006
19 8 5 -0.0507 0.0005
19 9 2 3.9707 0.0004
19 9 4 -3.1897 -0.0007
19 10 1 4.5354 0.0005
19 10 3 -0.4649 -0.0002
19 10 5 -0.5993 -0.0001
19 11 2 -0.6107 -0.0011
19 11 4 -1.8321 -0.0002
19 12 1 -1.0034 -0.0010
19 12 3 0.3586 -0.0002
19 12 5 -5.7031 0.0005
19 13 2 -1.1344 0.0001
19 13 4 -2.2009 -0.0003
19 14 1 -3.5627 0.0010
19 14 3 -3.0149 -0.0005
19 14 5 -2.3746 0.0004
19 15 2 1.3872 -0.0004
19 15 4 0.3586 -0.0001
19 16 1 2.3192 0.0007
19 16 3 -0.1800 0.0003
19 16 5 5.9590 -0.0019
19 17 2 -1.8553 -0.0005
19 17 4 0.2039 0.0001
19 18 1 2.5429 -0.0007
19 18 3 -2.9905 0.0002
19 19 2 -3.0042 0.0008
19 19 4 -0.1775 -0.0009
19 20 1 -0.8133 0.0002
19 20 3 -13.0984 -0.0004
19 21 2 -2.6419 -0.0003
19 22 1 -0.2683 -0.0000
19 23 2 -4.4376 0.0004
20 1 1 -0.5410 0.0003
20 1 3 -0.8779 -0.0008
20 1 5 -3.6575 -0.0001
20 2 0 1.6985 0.0009
20 2 2 1.5308 0.0012
20 2 4 -1.3083 0.0002
20 2 6 2.4812 0.0004
20 3 1 0.6669 -0.0013
20 3 3 -4.7833 0.0001
20 3 5 -4.1585 -0.0007
20 4 0 -0.9057 0.0016
20 4 2 3.3233 0.0016
20 4 4 -0.0476 0.0003
20 4 6 -6.6911 -0.0002
20 5 1 2.6126 -0.0009
20 5 3 -2.0942 0.0002
20 5 5 0.3804 -0.0004
20 6 0 -0.0978 0.0007
20 6 2 6.7143 0.0011
20 6 4 1.3046 -0.0001
20 6 6 -2.8537 -0.0002
20 7 1 2.0291 0.0006
20 7 3 5.7251 -0.0007
20 7 5 2.2336 0.0001
20 8 0 2.7245 0.0017
20 8 2 2.8926 0.0008
20 8 4 -0.1646 -0.0006
20 9 1 0.6015 0.0004
20 9 3 6.8393 -0.0008
20 9 5 -0.4191 -0.0003
20 10 0 1.3175 0.0009
20 10 2 -0.7168 -0.0000
20 10 4 0.6032 0.0003
20 11 1 1.5808 0.0006
20 11 3 0.2096 -0.0002
20 11 5 1.8946 0.0005
20 12 0 -2.3079 -0.0007
20 12 2 2.4200 0.0001
20 12 4 4.7252 -0.0000
20 13 1 -3.7999 -0.0012
20 13 3 -0.9662 -0.0006
20 13 5 8.8804 -0.0000
20 14 0 -4.1553 -0.0012
20 14 2 0.6297 -0.0008
20 14 4 -1.2437 -0.0006
20 15 1 -6.1871 0.0001
20 15 3 -0.5735 -0.0011
20 15 5 7.6210 -0.0014
20 16 0 -3.6652 -0.0001
20 16 2 -5.3680 -0.0009
20 16 4 -5.0390 0.0000
20 17 1 0.9417 0.0011
20 17 3 1.7143 -0.0001
20 18 0 -4.3652 0.0011
20 18 2 -2.4342 0.0009
20 18 4 0.1545 -0.0002
20 19 1 1.2127 -0.0020
20 19 3 5.1944 -0.0003
20 20 0 -6.4703 -0.0003
20 20 2 3.0468 0.0001
20 21 1 -3.1007 0.0005
20 22 2 2.2748 -0.0021
21 1 2 -0.3369 -0.0002
21 1 4 -0.4658 -0.0002
21 1 6 -3.1274 -0.0001
21 2 1 0.4314 -0.0008
21 2 3 -1.2846 0.0007
21 2 5 -4.8806 -0.0004
21 3 2 -1.6406 0.0005
21 3 4 1.4116 -0.0003
21 3 6 2.2119 -0.0000
21 4 1 -1.1075 0.0002
21 4 3 1.0711 0.0008
21 4 5 -5.9363 -0.0001
21 5 2 0.5729 0.0013
21 5 4 1.5482 -0.0008
21 5 6 -0.7107 0.0008
21 6 1 -0.5984 0.0014
21 6 3 -1.1377 0.0001
21 6 5 -3.2046 0.0003
21 7 2 -0.9463 0.0002
21 7 4 3.7129 0.0001
21 8 1 1.9124 0.0012
21 8 3 2.6107 -0.0004
21 8 5 3.1543 0.0001
21 9 2 -1.4426 0.0006
21 9 4 1.3122 -0.0003
21 10 1 0.4122 0.0008
21 10 3 6.2844 -0.0002
21 10 5 5.4253 0.0003
21 11 2 1.5821 0.0003
21 11 4 -1.8748 -0.0008
21 12 1 2.7535 0.0002
21 12 3 3.9348 -0.0003
21 12 5 5.5113 0.0000
21 13 2 -0.3853 -0.0012
21 13 4 -2.0961 0.0002
21 14 1 3.8176 -0.0003
21 14 3 2.2866 -0.0003
21 15 2 -0.3853 0.0006
21 15 4 -4.7096 -0.0000
21 16 1 -2.0624 0.0002
21 16 3 0.1193 -0.0011
21 17 2 2.9910 -0.0007
21 17 4 -4.2136 0.0004
21 18 1 -1.4786 -0.0000
21 18 3 0.5479 -0.0007
21 19 2 0.9278 -0.0008
21 20 1 2.2924 -0.0004
22 1 1 -0.6027 -0.0007
22 1 3 -1.9586 -0.0002
22 1 5 1.8754 -0.0001
22 2 0 -2.2801 0.0020
22 2 2 -0.7710 0.0003
22 2 4 0.9653 0.0004
22 2 6 3.3104 0.0006
22 3 1 -1.4919 -0.0010
22 3 3 2.0886 0.0003
22 3 5 1.2291 -0.0004
22 4 0 0.6112 0.0011
22 4 2 -0.5520 0.0023
22 4 4 -1.8721 0.0001
22 4 6 13.6752 -0.0004
22 5 1 -1.8371 -0.0018
22 5 3 5.5171 -0.0000
22 5 5 1.2201 -0.0010
22 6 0 -0.4914 0.0005
22 6 2 -3.9132 0.0016
22 6 4 -2.0655 0.0003
22 7 1 -1.8478 -0.0001
22 7 3 -0.2553 -0.0006
22 7 5 -0.3654 -0.0001
22 8 0 -4.1954 0.0006
22 8 2 -0.8530 0.0007
22 8 4 3.4947 0.0001
22 9 1 -3.0507 0.0012
22 9 3 -1.0399 -0.0000
22 9 5 -4.6390 0.0001
22 10 0 -1.4493 0.0022
22 10 2 0.5044 0.0006
22 10 4 4.5377 -0.0005
22 11 1 -5.4940 0.0001
22 11 3 3.9829 -0.0005
22 11 5 -10.6507 -0.0009
22 12 0 0.5781 -0.0006
22 12 2 -1.4587 -0.0000
22 12 4 0.3107 -0.0004
22 13 1 -1.8700 0.0002
22 13 3 0.4268 -0.0005
22 14 0 1.8751 -0.0011
22 14 2 2.9248 -0.0004
22 14 4 5.1138 -0.0003
22 15 1 -1.4451 -0.0002
22 15 3 -1.3492 -0.0011
22 16 0 8.6394 0.0014
22 16 2 5.8758 -0.0002
22 16 4 7.8202 -0.0008
22 17 1 -5.5837 0.0001
22 17 3 0.3555 -0.0026
22 18 0 8.4391 -0.0000
22 18 2 3.0239 0.0000
22 19 1 -0.9236 -0.0001
22 21 1 2.1563 -0.0022
23 1 2 1.0629 0.0004
23 1 4 0.2506 -0.0003
23 2 1 1.9711 -0.0021
23 2 3 2.3906 0.0003
23 2 5 7.7989 0.0001
23 3 2 -1.4361 0.0005
23 3 4 -0.0224 0.0001
23 4 1 1.2208 -0.0008
23 4 3 -0.9185 0.0002
23 4 5 1.3987 -0.0006
23 5 2 -1.1193 0.0011
23 5 4 4.2674 -0.0001
23 6 1 0.1961 0.0015
23 6 3 3.0627 0.0009
23 6 5 -2.7700 -0.0002
23 7 2 0.4384 0.0009
23 7 4 2.3623 -0.0004
23 8 1 -0.4583 0.0013
23 8 3 2.8348 -0.0000
23 8 5 -2.2477 0.0008
23 9 2 0.9438 -0.0003
23 9 4 0.0152 -0.0001
23 10 1 -1.6568 0.0004
23 10 3 -4.1983 -0.0007
23 10 5 -1.6330 0.0003
23 11 2 3.9659 0.0008
23 11 4 2.3717 -0.0002
23 12 1 -4.0139 0.0004
23 12 3 -1.9198 0.0006
23 13 2 2.5685 0.0004
23 13 4 2.2758 0.0001
23 14 1 -1.7292 0.0005
23 14 3 1.2020 -0.0010
23 15 2 -3.8626 -0.0015
23 16 1 3.6192 -0.0010
23 16 3 -1.1258 -0.0012
23 17 2 -3.2995 0.0001
23 18 1 1.7344 -0.0006
23 20 1 -0.5090 0.0019
24 1 1 0.1472 -0.0011
24 1 3 1.7374 0.0005
24 1 5 -1.5105 -0.0006
24 2 0 1.2954 0.0012
24 2 2 -3.4921 -0.0000
24 2 4 2.7603 0.0000
24 3 1 -0.0618 -0.0009
24 3 3 -0.9112 0.0001
24 3 5 -1.9740 0.0006
24 4 0 2.3539 0.0007
24 4 2 -2.2838 0.0014
24 4 4 3.7597 0.0003
24 5 1 0.6851 -0.0007
24 5 3 -3.2645 -0.0004
24 5 5 -2.4466 -0.0005
24 6 0 1.1812 0.0002
24 6 2 1.1255 0.0018
24 6 4 2.9598 0.0005
24 7 1 0.1864 -0.0008
24 7 3 -0.4695 0.0000
24 7 5 -2.5999 -0.0029
24 8 0 3.0179 0.0007
24 8 2 0.4273 0.0004
24 8 4 -1.3583 0.0004
24 9 1 -1.0363 0.0004
24 9 3 -1.8561 0.0004
24 10 0 3.8672 0.0006
24 10 2 1.4619 0.0004
24 10 4 -2.0412 -0.0006
24 11 1 4.9942 0.0011
24 11 3 -2.6804 0.0007
24 12 0 5.4971 0.0014
24 12 2 -0.6139 0.0005
24 12 4 4.0909 -0.0014
24 13 1 7.4806 0.0008
24 13 3 0.1244 -0.0013
24 14 0 3.0069 -0.0005
24 14 2 -5.3070 -0.0002
24 15 1 2.0205 -0.0001
24 15 3 -0.4773 -0.0003
24 16 0 -10.5908 0.0006
24 16 2 -2.6602 0.0000
24 17 1 -0.0980 -0.0009
24 18 0 -10.5854 0.0025
25 1 2 2.4815 0.0003
25 1 4 -0.8633 0.0001
25 2 1 -5.1012 -0.0019
25 2 3 -1.9054 0.0001
25 2 5 -3.4695 -0.0003
25 3 2 3.4387 0.0006
25 3 4 -2.8267 -0.0001
25 4 1 -1.9336 -0.0007
25 4 3 -0.1943 -0.0001
25 4 5 2.3953 0.0000
25 5 2 0.1082 0.0002
25 5 4 -6.5042 0.0007
25 6 1 -0.5926 0.0007
25 6 3 0.7549 0.0006
25 7 2 -0.8337 0.0001
25 7 4 -2.6522 -0.0004
25 8 1 -4.0579 0.0011
25 8 3 -1.2542 0.0013
25 9 2 -0.2281 0.0003
25 10 1 1.4288 0.0005
25 10 3 -2.0092 -0.0000
25 11 2 -0.0033 0.0004
25 12 1 3.7950 0.0001
25 13 2 4.8164 0.0006
25 14 1 -4.3894 -0.0000
25 15 2 6.5405 0.0003
25 16 1 -6.4768 0.0010
26 1 1 0.1975 0.0004
26 1 3 -0.0488 0.0007
26 2 0 -0.5975 0.0001
26 2 2 7.2745 0.0010
26 2 4 0.9461 0.0002
26 3 1 0.4309 -0.0013
26 3 3 2.5966 -0.0002
26 4 0 -0.2107 -0.0001
26 4 2 5.0701 -0.0001
26 4 4 1.1737 -0.0002
26 5 1 -1.9519 0.0006
26 5 3 -3.4131 -0.0007
26 6 0 3.6372 -0.0000
26 6 2 2.6398 0.0005
26 7 1 -0.7240 0.0000
26 7 3 -7.4146 0.0007
26 8 0 -2.1466 0.0005
26 8 2 -0.6312 0.0005
26 9 1 2.4991 -0.0014
26 9 3 -2.6414 0.0013
26 10 0 -4.3955 0.0001
26 10 2 -5.5474 0.0000
26 11 1 -1.4428 0.0020
26 12 0 0.3723 0.0009
26 12 2 -2.5132 0.0003
26 13 1 -3.2696 0.0020
26 14 0 1.0348 0.0022
26 15 1 3.3989 -0.0012
26 16 0 5.1351 -0.0016
27 1 2 -2.5849 0.0004
27 1 4 -1.6394 0.0004
27 2 1 -0.3885 -0.0010
27 2 3 -0.3234 -0.0002
27 3 2 -2.2235 0.0000
27 3 4 -4.3930 0.0002
27 4 1 -3.0821 -0.0003
27 4 3 -1.9449 0.0004
27 5 2 0.9708 -0.0007
27 6 1 -0.2063 0.0002
27 6 3 -8.2193 0.0000
27 7 2 4.4567 -0.0009
27 8 1 3.9412 -0.0005
27 8 3 -6.9992 0.0009
27 9 2 1.0827 0.0004
27 10 1 -3.2253 0.0011
27 11 2 -5.7177 0.0008
27 12 1 -4.1818 0.0009
27 14 1 3.9849 -0.0026
28 1 1 -7.1758 0.0002
28 2 0 4.8372 -0.0009
28 2 2 -4.5424 0.0014
28 3 1 -4.2583 0.0016
28 3 3 -2.6683 -0.0009
28 4 0 5.2469 -0.0006
28 4 2 -6.9623 0.0006
28 5 1 0.6924 -0.0002
28 5 3 2.1771 0.0003
28 6 0 -2.3979 -0.0009
28 6 2 -7.7005 -0.0032
28 7 1 2.3554 0.0004
28 8 0 -0.5660 -0.0000
28 8 2 -2.1837 0.0002
28 9 1 2.7281 0.0012
28 10 0 -0.0683 0.0012
28 10 2 4.1739 0.0022
28 11 1 2.4896 -0.0027
28 12 0 -3.6818 -0.0007
29 2 1 1.6925 0.0017
29 4 1 0.1612 -0.0001
29 5 2 -1.8885 -0.0016
29 6 1 -0.8914 -0.0025
29 8 1 -0.1032 0.0006
30 2 0 -7.0894 -0.0001
0 0 0 0.0 0.0
;
_shelx_fab_checksum               89633
_olex2_submission_special_instructions 'No special instructions were received'
